#        1GCZ_R01_S0001_C0000_L00001_S0001_C0000_G0010_E0001.mol2
#        Tue Jun  6 09:54:28 2017
#        Descriptor:     12    19    24     9     9    11
#        Energy - RMSD - RMSD MassCentre:     -62.7480    999.9999    999.9999
#        Receptor:       1  Surface Point:     1  Conformer:     0
#        Ligand:         1  Surface Point:     1  Conformer:     0
#        BUDE Formal Charge: 0
#        ATOM Count: 27
#        Heavy ATOM Count: 17
@<TRIPOS>MOLECULE
pdb1gcz_ligA.pdb_1GCZ_R01_S0001_C0000_L00001_S0001_C0000_G0010_E0001
27 28 1 0 0
SMALL
GASTEIGER
@<TRIPOS>ATOM
       1 C3         3.7647    3.8962    6.1629 C.3       1 YZ9900      0.0513 
       2 C11        3.7175    2.5326    5.5350 C.3       1 YZ9900      0.2089 
       3 O1         0.3606    2.3108    6.1581 O.2       1 YZ9900     -0.2447 
       4 O2         2.5490    1.7858    6.0620 O.3       1 YZ9900     -0.4453 
       5 C6        -1.1613    1.7008    1.1721 C.ar      1 YZ9900      0.0063 
       6 C5        -0.0509    1.7254    3.4362 C.ar      1 YZ9900      0.0160 
       7 C4         0.5404   -0.5663    0.4008 C.ar      1 YZ9900      0.0796 
       8 O3         1.5300   -0.4539    2.5909 O.2       1 YZ9900     -0.4208 
       9 C2        -0.2123    1.1494    2.0655 C.ar      1 YZ9900      0.0353 
      10 C1         0.6059    0.0461    1.6722 C.ar      1 YZ9900      0.1519 
      11 C7         1.7394    0.0796    3.7729 C.ar      1 YZ9900      0.3521 
      12 C12        1.2746    1.8196    5.5685 C.2       1 YZ9900      0.3476 
      13 O4        -0.5810   -0.4670   -1.7052 O.3       1 YZ9900     -0.2865 
      14 O5         2.5687   -0.3788    4.4517 O.2       1 YZ9900     -0.2442 
      15 C10       -1.2655    1.1203   -0.1254 C.ar      1 YZ9900      0.0422 
      16 C9         0.9486    1.2302    4.2291 C.ar      1 YZ9900      0.1515 
      17 C8        -0.4324    0.0303   -0.4653 C.ar      1 YZ9900      0.1988 
      18 H31        2.8387    4.4290    5.9460 H         1 YZ9900      0.0000 
      19 H32        3.8812    3.7952    7.2420 H         1 YZ9900      0.0000 
      20 H33        4.6086    4.4540    5.7570 H         1 YZ9900      0.0000 
      21 H112       4.6327    1.9908    5.7739 H         1 YZ9900      0.0000 
      22 H113       3.6265    2.6334    4.4534 H         1 YZ9900      0.0000 
      23 H6        -1.7851    2.5328    1.4634 H         1 YZ9900      0.0000 
      24 H5        -0.7040    2.5092    3.7901 H         1 YZ9900      0.0000 
      25 H4         1.1615   -1.4008    0.1108 H         1 YZ9900      0.0000 
      26 HO4       -0.2289    0.1562   -2.3448 H         1 YZ9900      0.0000 
      27 H10       -1.9739    1.5095   -0.8418 H         1 YZ9900      0.0000 
@<TRIPOS>BOND
       1       13       17 1        
       2        7       17 ar       
       3        7       10 ar       
       4        8       10 ar       
       5        8       11 ar       
       6       14       11 2        
       7       17       15 ar       
       8       10        9 ar       
       9       11       16 ar       
      10        2        4 1        
      11        2        1 1        
      12       15        5 ar       
      13        9        5 ar       
      14        9        6 ar       
      15       16        6 ar       
      16       16       12 1        
      17        4       12 1        
      18       12        3 2        
      19       18        1 1        
      20       19        1 1        
      21       20        1 1        
      22       21        2 1        
      23       22        2 1        
      24       23        5 1        
      25       24        6 1        
      26       25        7 1        
      27       26       13 1        
      28       27       15 1        
@<TRIPOS>SUBSTRUCTURE
 1 YZ9900 10 RESIDUE 4 A YZ9900 0 ROOT

