#        1GCZ_R01_S0001_C0000_L00017_S0001_C0029_G0010_E0001.mol2
#        Tue Jun  6 10:01:23 2017
#        Descriptor:      8    35    19    11     9    14
#        Energy - RMSD - RMSD MassCentre:     -64.6728    999.9999    999.9999
#        Receptor:       1  Surface Point:     1  Conformer:     0
#        Ligand:        17  Surface Point:     1  Conformer:    29
#        BUDE Formal Charge: 0
#        ATOM Count: 52
#        Heavy ATOM Count: 29
@<TRIPOS>MOLECULE
ZINC61282001_1GCZ_R01_S0001_C0000_L00017_S0001_C0029_G0010_E0001
 52 53 0 0 0
SMALL
USER_CHARGES
@<TRIPOS>ATOM
       1 C1         8.5818   -0.3873    5.1389 C.3       1 <0>        -0.1391 
       2 C2         8.1488    0.3735    6.3888 C.3       1 <0>        -0.1418 
       3 C3         7.4417    1.6447    5.9835 C.2       1 <0>         0.5169 
       4 O1         7.2980    1.9166    4.7926 O.2       1 <0>        -0.5335 
       5 N1         6.9742    2.4711    6.9149 N.am      1 <0>        -0.7285 
       6 C4         7.1461    2.1463    8.3381 C.3       1 <0>         0.1288 
       7 C5         6.1532    1.0795    8.7334 C.2       1 <0>         0.4630 
       8 O2         6.5377   -0.0013    9.0678 O.2       1 <0>        -0.4988 
       9 O3         4.8303    1.3471    8.7093 O.3       1 <0>        -0.3175 
      10 C6         3.9282    0.3056    9.0921 C.3       1 <0>         0.0731 
      11 C7         4.1065   -0.8906    8.1616 C.3       1 <0>        -0.1692 
      12 C8         2.5082    0.8102    8.9952 C.2       1 <0>         0.5202 
      13 O4         1.7827    0.8018    9.9884 O.2       1 <0>        -0.4963 
      14 N2         2.0417    1.2637    7.8353 N.am      1 <0>        -0.6538 
      15 C9         0.7114    1.7366    7.7429 C.ar      1 <0>         0.2101 
      16 C10       -0.0084    2.1085    8.8845 C.ar      1 <0>        -0.1321 
      17 C11       -1.3387    2.5234    8.7501 C.ar      1 <0>        -0.0675 
      18 C12       -1.9407    2.5659    7.4861 C.ar      1 <0>        -0.1401 
      19 C13       -1.2062    2.2273    6.3435 C.ar      1 <0>        -0.0656 
      20 C14        0.1189    1.7957    6.4759 C.ar      1 <0>        -0.1718 
      21 C15        0.9593    1.3726    5.3333 C.2       1 <0>         0.5702 
      22 O5         2.1138    0.9947    5.5263 O.2       1 <0>        -0.5422 
      23 N3         0.4656    1.4013    4.0987 N.am      1 <0>        -0.7214 
      24 C16        1.3002    0.9810    2.9639 C.3       1 <0>         0.2043 
      25 C17        0.4149    0.6280    1.7928 C.2       1 <0>        -0.0464 
      26 C18        0.2068    1.3786    0.7022 C.2       1 <0>        -0.1782 
      27 C19       -0.7272    0.5580   -0.1008 C.2       1 <0>        -0.2183 
      28 C20       -0.9105   -0.5434    0.6325 C.2       1 <0>        -0.0240 
      29 O6        -0.2395   -0.6002    1.8519 O.3       1 <0>        -0.1712 
      30 H1         9.2675    0.2280    4.5600 H         1 <0>         0.0628 
      31 H2         9.0794   -1.3097    5.4309 H         1 <0>         0.0628 
      32 H3         7.7068   -0.6214    4.5364 H         1 <0>         0.0640 
      33 H4         9.0244    0.6207    6.9853 H         1 <0>         0.0966 
      34 H5         7.4727   -0.2456    6.9750 H         1 <0>         0.0966 
      35 H6         6.5012    3.3217    6.6449 H         1 <0>         0.4131 
      36 H7         8.1567    1.7810    8.5079 H         1 <0>         0.1171 
      37 H8         6.9769    3.0384    8.9374 H         1 <0>         0.1171 
      38 H9         4.1359    0.0034   10.1164 H         1 <0>         0.1185 
      39 H10        3.9107   -0.5841    7.1362 H         1 <0>         0.0777 
      40 H11        5.1259   -1.2624    8.2413 H         1 <0>         0.0803 
      41 H12        3.4099   -1.6768    8.4451 H         1 <0>         0.0842 
      42 H13        2.6374    1.2704    7.0198 H         1 <0>         0.4245 
      43 H14        0.4568    2.0699    9.8585 H         1 <0>         0.1486 
      44 H15       -1.9031    2.8022    9.6277 H         1 <0>         0.1348 
      45 H16       -2.9731    2.8675    7.3876 H         1 <0>         0.1332 
      46 H17       -1.6639    2.2987    5.3680 H         1 <0>         0.1296 
      47 H18       -0.4826    1.7118    3.9414 H         1 <0>         0.4054 
      48 H19        1.8886    0.1116    3.2497 H         1 <0>         0.1035 
      49 H20        1.9663    1.7943    2.6837 H         1 <0>         0.0890 
      50 H21        0.6073    2.3474    0.4434 H         1 <0>         0.1520 
      51 H22       -1.1580    0.7906   -1.0634 H         1 <0>         0.1526 
      52 H23       -1.5435   -1.3690    0.3426 H         1 <0>         0.2068 
@<TRIPOS>BOND
       1        1        2 1        
       2        1       30 1        
       3        1       31 1        
       4        1       32 1        
       5        2        3 1        
       6        2       33 1        
       7        2       34 1        
       8        3        4 2        
       9        3        5 am       
      10        5        6 1        
      11        5       35 1        
      12        6        7 1        
      13        6       36 1        
      14        6       37 1        
      15        7        8 2        
      16        7        9 1        
      17        9       10 1        
      18       10       11 1        
      19       10       12 1        
      20       10       38 1        
      21       11       39 1        
      22       11       40 1        
      23       11       41 1        
      24       12       13 2        
      25       12       14 am       
      26       14       15 1        
      27       14       42 1        
      28       15       20 ar       
      29       15       16 ar       
      30       16       17 ar       
      31       16       43 1        
      32       17       18 ar       
      33       17       44 1        
      34       18       19 ar       
      35       18       45 1        
      36       19       20 ar       
      37       19       46 1        
      38       20       21 1        
      39       21       22 2        
      40       21       23 am       
      41       23       24 1        
      42       23       47 1        
      43       24       25 1        
      44       24       48 1        
      45       24       49 1        
      46       25       29 1        
      47       25       26 2        
      48       26       27 1        
      49       26       50 1        
      50       27       28 2        
      51       27       51 1        
      52       28       29 1        
      53       28       52 1        

