#        1GCZ_R01_S0001_C0000_L00017_S0001_C0029_G0010_E0001.mol2
#        Tue Jun  6 14:19:13 2017
#        Descriptor:     35    35     9    14     7    14
#        Energy - RMSD - RMSD MassCentre:     -60.3762    999.9999    999.9999
#        Receptor:       1  Surface Point:     1  Conformer:     0
#        Ligand:        17  Surface Point:     1  Conformer:    29
#        BUDE Formal Charge: 0
#        ATOM Count: 52
#        Heavy ATOM Count: 29
@<TRIPOS>MOLECULE
ZINC61282001_1GCZ_R01_S0001_C0000_L00017_S0001_C0029_G0010_E0001
 52 53 0 0 0
SMALL
USER_CHARGES
@<TRIPOS>ATOM
       1 C1         7.7607   -6.3559    4.5729 C.3       1 <0>        -0.1391 
       2 C2         6.4787   -6.1410    5.3722 C.3       1 <0>        -0.1418 
       3 C3         6.7953   -5.3718    6.6324 C.2       1 <0>         0.5169 
       4 O1         7.9517   -5.0258    6.8686 O.2       1 <0>        -0.5335 
       5 N1         5.8230   -5.0683    7.4877 N.am      1 <0>        -0.7285 
       6 C4         4.4410   -5.4819    7.2055 C.3       1 <0>         0.1288 
       7 C5         3.8497   -4.5740    6.1537 C.2       1 <0>         0.4630 
       8 O2         3.5535   -5.0128    5.0824 O.2       1 <0>        -0.4988 
       9 O3         3.6553   -3.2657    6.4239 O.3       1 <0>        -0.3175 
      10 C6         3.0927   -2.4451    5.3968 C.3       1 <0>         0.0731 
      11 C7         4.0034   -2.4648    4.1726 C.3       1 <0>        -0.1692 
      12 C8         2.9605   -1.0282    5.9018 C.2       1 <0>         0.5202 
      13 O4         1.8581   -0.4832    5.9253 O.2       1 <0>        -0.4963 
      14 N2         4.0367   -0.3690    6.3214 N.am      1 <0>        -0.6538 
      15 C9         3.9144    0.9588    6.7947 C.ar      1 <0>         0.2101 
      16 C10        2.6783    1.4736    7.2027 C.ar      1 <0>        -0.1321 
      17 C11        2.5956    2.8084    7.6169 C.ar      1 <0>        -0.0675 
      18 C12        3.7388    3.6179    7.6229 C.ar      1 <0>        -0.1401 
      19 C13        4.9794    3.0886    7.2480 C.ar      1 <0>        -0.0656 
      20 C14        5.0626    1.7593    6.8172 C.ar      1 <0>        -0.1718 
      21 C15        6.3188    1.1256    6.3576 C.2       1 <0>         0.5702 
      22 O5         6.3148   -0.0459    5.9827 O.2       1 <0>        -0.5422 
      23 N3         7.4511    1.8232    6.3503 N.am      1 <0>        -0.7214 
      24 C16        8.6987    1.1939    5.8938 C.3       1 <0>         0.2043 
      25 C17        9.6900    2.2655    5.5080 C.2       1 <0>        -0.0464 
      26 C18       10.7510    2.6590    6.2259 C.2       1 <0>        -0.1782 
      27 C19       11.3574    3.7144    5.3839 C.2       1 <0>        -0.2183 
      28 C20       10.5707    3.7668    4.3056 C.2       1 <0>        -0.0240 
      29 O6         9.4829    2.8970    4.2838 O.3       1 <0>        -0.1712 
      30 H1         8.4667   -6.9309    5.1686 H         1 <0>         0.0628 
      31 H2         7.5305   -6.8985    3.6584 H         1 <0>         0.0628 
      32 H3         8.1974   -5.3913    4.3230 H         1 <0>         0.0640 
      33 H4         6.0485   -7.1051    5.6349 H         1 <0>         0.0966 
      34 H5         5.7671   -5.5767    4.7727 H         1 <0>         0.0966 
      35 H6         6.0337   -4.5538    8.3310 H         1 <0>         0.4131 
      36 H7         4.4356   -6.5076    6.8429 H         1 <0>         0.1171 
      37 H8         3.8487   -5.4153    8.1157 H         1 <0>         0.1171 
      38 H9         2.1103   -2.8257    5.1250 H         1 <0>         0.1185 
      39 H10        4.9890   -2.0958    4.4485 H         1 <0>         0.0777 
      40 H11        4.0880   -3.4837    3.8007 H         1 <0>         0.0803 
      41 H12        3.5815   -1.8290    3.3971 H         1 <0>         0.0842 
      42 H13        4.9418   -0.8165    6.3020 H         1 <0>         0.4245 
      43 H14        1.7975    0.8486    7.1924 H         1 <0>         0.1486 
      44 H15        1.6433    3.2152    7.9235 H         1 <0>         0.1348 
      45 H16        3.6683    4.6527    7.9241 H         1 <0>         0.1332 
      46 H17        5.8640    3.7066    7.2911 H         1 <0>         0.1296 
      47 H18        7.4532    2.7851    6.6584 H         1 <0>         0.4054 
      48 H19        8.4917    0.5631    5.0320 H         1 <0>         0.1035 
      49 H20        9.1131    0.5877    6.6966 H         1 <0>         0.0890 
      50 H21       11.1037    2.3112    7.1854 H         1 <0>         0.1520 
      51 H22       12.2387    4.3041    5.5885 H         1 <0>         0.1526 
      52 H23       10.7231    4.4379    3.4733 H         1 <0>         0.2068 
@<TRIPOS>BOND
       1        1        2 1        
       2        1       30 1        
       3        1       31 1        
       4        1       32 1        
       5        2        3 1        
       6        2       33 1        
       7        2       34 1        
       8        3        4 2        
       9        3        5 am       
      10        5        6 1        
      11        5       35 1        
      12        6        7 1        
      13        6       36 1        
      14        6       37 1        
      15        7        8 2        
      16        7        9 1        
      17        9       10 1        
      18       10       11 1        
      19       10       12 1        
      20       10       38 1        
      21       11       39 1        
      22       11       40 1        
      23       11       41 1        
      24       12       13 2        
      25       12       14 am       
      26       14       15 1        
      27       14       42 1        
      28       15       20 ar       
      29       15       16 ar       
      30       16       17 ar       
      31       16       43 1        
      32       17       18 ar       
      33       17       44 1        
      34       18       19 ar       
      35       18       45 1        
      36       19       20 ar       
      37       19       46 1        
      38       20       21 1        
      39       21       22 2        
      40       21       23 am       
      41       23       24 1        
      42       23       47 1        
      43       24       25 1        
      44       24       48 1        
      45       24       49 1        
      46       25       29 1        
      47       25       26 2        
      48       26       27 1        
      49       26       50 1        
      50       27       28 2        
      51       27       51 1        
      52       28       29 1        
      53       28       52 1        

