#        1GCZ_R01_S0001_C0000_L00017_S0001_C0030_G0010_E0001.mol2
#        Tue Jun  6 10:01:24 2017
#        Descriptor:      7    15    12     9     9    14
#        Energy - RMSD - RMSD MassCentre:     -69.1806    999.9999    999.9999
#        Receptor:       1  Surface Point:     1  Conformer:     0
#        Ligand:        17  Surface Point:     1  Conformer:    30
#        BUDE Formal Charge: 0
#        ATOM Count: 52
#        Heavy ATOM Count: 29
@<TRIPOS>MOLECULE
ZINC61282001_1GCZ_R01_S0001_C0000_L00017_S0001_C0030_G0010_E0001
 52 53 0 0 0
SMALL
USER_CHARGES
@<TRIPOS>ATOM
       1 C1        -0.1004   -2.3315    7.6581 C.3       1 <0>        -0.1391 
       2 C2        -1.0658   -1.6028    6.7276 C.3       1 <0>        -0.1418 
       3 C3        -1.3997   -0.2500    7.3094 C.2       1 <0>         0.5169 
       4 O1        -0.9048    0.0990    8.3799 O.2       1 <0>        -0.5335 
       5 N1        -2.2296    0.5645    6.6639 N.am      1 <0>        -0.7285 
       6 C4        -2.8210    0.1472    5.3845 C.3       1 <0>         0.1288 
       7 C5        -1.7886    0.2711    4.2896 C.2       1 <0>         0.4630 
       8 O2        -1.3928   -0.7061    3.7272 O.2       1 <0>        -0.4988 
       9 O3        -1.3127    1.4867    3.9456 O.3       1 <0>        -0.3175 
      10 C6        -0.3363    1.5542    2.9031 C.3       1 <0>         0.0731 
      11 C7        -0.8967    0.9117    1.6374 C.3       1 <0>        -0.1692 
      12 C8         0.9090    0.8157    3.3324 C.2       1 <0>         0.5202 
      13 O4         1.3508   -0.1004    2.6408 O.2       1 <0>        -0.4963 
      14 N2         1.5283    1.1560    4.4591 N.am      1 <0>        -0.6538 
      15 C9         2.6951    0.4649    4.8627 C.ar      1 <0>         0.2101 
      16 C10        2.9783   -0.8214    4.3884 C.ar      1 <0>        -0.1321 
      17 C11        4.1188   -1.4870    4.8536 C.ar      1 <0>        -0.0675 
      18 C12        4.9663   -0.8703    5.7828 C.ar      1 <0>        -0.1401 
      19 C13        4.6985    0.4300    6.2270 C.ar      1 <0>        -0.0656 
      20 C14        3.5499    1.0918    5.7771 C.ar      1 <0>        -0.1718 
      21 C15        3.1583    2.4470    6.2253 C.2       1 <0>         0.5702 
      22 O5         2.1282    2.9630    5.7946 O.2       1 <0>        -0.5422 
      23 N3         3.9206    3.1059    7.0934 N.am      1 <0>        -0.7214 
      24 C16        3.5317    4.4519    7.5385 C.3       1 <0>         0.2043 
      25 C17        2.3759    4.3471    8.5045 C.2       1 <0>        -0.0464 
      26 C18        1.7859    3.2160    8.9146 C.2       1 <0>        -0.1782 
      27 C19        0.7359    3.6974    9.8399 C.2       1 <0>        -0.2183 
      28 C20        0.8803    5.0254    9.8380 C.2       1 <0>        -0.0240 
      29 O6         1.8845    5.5429    9.0231 O.3       1 <0>        -0.1712 
      30 H1        -0.5704   -2.4719    8.6293 H         1 <0>         0.0628 
      31 H2         0.1505   -3.3007    7.2324 H         1 <0>         0.0628 
      32 H3         0.8055   -1.7403    7.7750 H         1 <0>         0.0640 
      33 H4        -1.9778   -2.1863    6.6211 H         1 <0>         0.0966 
      34 H5        -0.6016   -1.4728    5.7522 H         1 <0>         0.0966 
      35 H6        -2.4536    1.4696    7.0521 H         1 <0>         0.4131 
      36 H7        -3.1500   -0.8873    5.4566 H         1 <0>         0.1171 
      37 H8        -3.6724    0.7839    5.1531 H         1 <0>         0.1171 
      38 H9        -0.0892    2.5948    2.7036 H         1 <0>         0.1185 
      39 H10       -1.1548   -0.1253    1.8416 H         1 <0>         0.0777 
      40 H11       -1.7862    1.4520    1.3207 H         1 <0>         0.0803 
      41 H12       -0.1478    0.9511    0.8493 H         1 <0>         0.0842 
      42 H13        1.1654    1.9082    5.0269 H         1 <0>         0.4245 
      43 H14        2.3203   -1.2965    3.6759 H         1 <0>         0.1486 
      44 H15        4.3381   -2.4834    4.4996 H         1 <0>         0.1348 
      45 H16        5.8347   -1.3937    6.1547 H         1 <0>         0.1332 
      46 H17        5.3761    0.9150    6.9141 H         1 <0>         0.1296 
      47 H18        4.7663    2.6812    7.4463 H         1 <0>         0.4054 
      48 H19        3.2329    5.0458    6.6773 H         1 <0>         0.1035 
      49 H20        4.3760    4.9278    8.0326 H         1 <0>         0.0890 
      50 H21        2.0006    2.1904    8.6532 H         1 <0>         0.1520 
      51 H22        0.0199    3.1112   10.3965 H         1 <0>         0.1526 
      52 H23        0.2689    5.7048   10.4133 H         1 <0>         0.2068 
@<TRIPOS>BOND
       1        1        2 1        
       2        1       30 1        
       3        1       31 1        
       4        1       32 1        
       5        2        3 1        
       6        2       33 1        
       7        2       34 1        
       8        3        4 2        
       9        3        5 am       
      10        5        6 1        
      11        5       35 1        
      12        6        7 1        
      13        6       36 1        
      14        6       37 1        
      15        7        8 2        
      16        7        9 1        
      17        9       10 1        
      18       10       11 1        
      19       10       12 1        
      20       10       38 1        
      21       11       39 1        
      22       11       40 1        
      23       11       41 1        
      24       12       13 2        
      25       12       14 am       
      26       14       15 1        
      27       14       42 1        
      28       15       20 ar       
      29       15       16 ar       
      30       16       17 ar       
      31       16       43 1        
      32       17       18 ar       
      33       17       44 1        
      34       18       19 ar       
      35       18       45 1        
      36       19       20 ar       
      37       19       46 1        
      38       20       21 1        
      39       21       22 2        
      40       21       23 am       
      41       23       24 1        
      42       23       47 1        
      43       24       25 1        
      44       24       48 1        
      45       24       49 1        
      46       25       29 1        
      47       25       26 2        
      48       26       27 1        
      49       26       50 1        
      50       27       28 2        
      51       27       51 1        
      52       28       29 1        
      53       28       52 1        

