#        1GCZ_R01_S0001_C0000_L00017_S0001_C0030_G0010_E0001.mol2
#        Tue Jun  6 14:19:15 2017
#        Descriptor:     24     3    29    10     9    14
#        Energy - RMSD - RMSD MassCentre:     -67.1142    999.9999    999.9999
#        Receptor:       1  Surface Point:     1  Conformer:     0
#        Ligand:        17  Surface Point:     1  Conformer:    30
#        BUDE Formal Charge: 0
#        ATOM Count: 52
#        Heavy ATOM Count: 29
@<TRIPOS>MOLECULE
ZINC61282001_1GCZ_R01_S0001_C0000_L00017_S0001_C0030_G0010_E0001
 52 53 0 0 0
SMALL
USER_CHARGES
@<TRIPOS>ATOM
       1 C1         0.3419   -1.8485    8.0484 C.3       1 <0>        -0.1391 
       2 C2        -0.5308   -0.9354    7.1920 C.3       1 <0>        -0.1418 
       3 C3        -0.4243    0.4826    7.7003 C.2       1 <0>         0.5169 
       4 O1         0.2913    0.7379    8.6675 O.2       1 <0>        -0.5335 
       5 N1        -1.1047    1.4559    7.1015 N.am      1 <0>        -0.7285 
       6 C4        -1.9598    1.1507    5.9456 C.3       1 <0>         0.1288 
       7 C5        -1.0980    0.9502    4.7221 C.2       1 <0>         0.4630 
       8 O2        -1.0474   -0.1210    4.1949 O.2       1 <0>        -0.4988 
       9 O3        -0.3843    1.9818    4.2233 O.3       1 <0>        -0.3175 
      10 C6         0.4172    1.7440    3.0632 C.3       1 <0>         0.0731 
      11 C7        -0.4633    1.2142    1.9350 C.3       1 <0>        -0.1692 
      12 C8         1.4833    0.7254    3.3892 C.2       1 <0>         0.5202 
      13 O4         1.5748   -0.3047    2.7235 O.2       1 <0>        -0.4963 
      14 N2         2.3237    0.9423    4.3969 N.am      1 <0>        -0.6538 
      15 C9         3.3230   -0.0112    4.7038 C.ar      1 <0>         0.2101 
      16 C10        3.2002   -1.3469    4.3030 C.ar      1 <0>        -0.1321 
      17 C11        4.1896   -2.2661    4.6719 C.ar      1 <0>        -0.0675 
      18 C12        5.2900   -1.8515    5.4330 C.ar      1 <0>        -0.1401 
      19 C13        5.4267   -0.5078    5.8010 C.ar      1 <0>        -0.0656 
      20 C14        4.4308    0.4107    5.4485 C.ar      1 <0>        -0.1718 
      21 C15        4.4635    1.8399    5.8317 C.2       1 <0>         0.5702 
      22 O5         3.5468    2.5877    5.4949 O.2       1 <0>        -0.5422 
      23 N3         5.4842    2.3149    6.5398 N.am      1 <0>        -0.7214 
      24 C16        5.5168    3.7344    6.9203 C.3       1 <0>         0.2043 
      25 C17        4.5232    3.9798    8.0306 C.2       1 <0>        -0.0464 
      26 C18        3.7313    3.0624    8.6024 C.2       1 <0>        -0.1782 
      27 C19        2.9814    3.8434    9.6115 C.2       1 <0>        -0.2183 
      28 C20        3.4555    5.0857    9.4839 C.2       1 <0>        -0.0240 
      29 O6         4.4303    5.2847    8.5089 O.3       1 <0>        -0.1712 
      30 H1        -0.0038   -1.8169    9.0795 H         1 <0>         0.0628 
      31 H2         0.2755   -2.8679    7.6740 H         1 <0>         0.0628 
      32 H3         1.3750   -1.5105    8.0011 H         1 <0>         0.0640 
      33 H4        -1.5663   -1.2638    7.2498 H         1 <0>         0.0966 
      34 H5        -0.1938   -0.9757    6.1583 H         1 <0>         0.0966 
      35 H6        -1.0342    2.4047    7.4406 H         1 <0>         0.4131 
      36 H7        -2.5262    0.2428    6.1423 H         1 <0>         0.1171 
      37 H8        -2.6465    1.9769    5.7734 H         1 <0>         0.1171 
      38 H9         0.8884    2.6736    2.7504 H         1 <0>         0.1185 
      39 H10       -0.9434    0.2913    2.2536 H         1 <0>         0.0777 
      40 H11       -1.2230    1.9536    1.6912 H         1 <0>         0.0803 
      41 H12        0.1501    1.0204    1.0576 H         1 <0>         0.0842 
      42 H13        2.2485    1.7881    4.9436 H         1 <0>         0.4245 
      43 H14        2.3482   -1.6648    3.7205 H         1 <0>         0.1486 
      44 H15        4.0964   -3.3002    4.3747 H         1 <0>         0.1348 
      45 H16        6.0417   -2.5667    5.7328 H         1 <0>         0.1332 
      46 H17        6.2964   -0.1865    6.3550 H         1 <0>         0.1296 
      47 H18        6.2365    1.7000    6.8157 H         1 <0>         0.4054 
      48 H19        5.2576    4.3462    6.0589 H         1 <0>         0.1035 
      49 H20        6.5160    3.9945    7.2631 H         1 <0>         0.0890 
      50 H21        3.6396    2.0056    8.3996 H         1 <0>         0.1520 
      51 H22        2.2279    3.4909   10.3001 H         1 <0>         0.1526 
      52 H23        3.1251    5.9268   10.0753 H         1 <0>         0.2068 
@<TRIPOS>BOND
       1        1        2 1        
       2        1       30 1        
       3        1       31 1        
       4        1       32 1        
       5        2        3 1        
       6        2       33 1        
       7        2       34 1        
       8        3        4 2        
       9        3        5 am       
      10        5        6 1        
      11        5       35 1        
      12        6        7 1        
      13        6       36 1        
      14        6       37 1        
      15        7        8 2        
      16        7        9 1        
      17        9       10 1        
      18       10       11 1        
      19       10       12 1        
      20       10       38 1        
      21       11       39 1        
      22       11       40 1        
      23       11       41 1        
      24       12       13 2        
      25       12       14 am       
      26       14       15 1        
      27       14       42 1        
      28       15       20 ar       
      29       15       16 ar       
      30       16       17 ar       
      31       16       43 1        
      32       17       18 ar       
      33       17       44 1        
      34       18       19 ar       
      35       18       45 1        
      36       19       20 ar       
      37       19       46 1        
      38       20       21 1        
      39       21       22 2        
      40       21       23 am       
      41       23       24 1        
      42       23       47 1        
      43       24       25 1        
      44       24       48 1        
      45       24       49 1        
      46       25       29 1        
      47       25       26 2        
      48       26       27 1        
      49       26       50 1        
      50       27       28 2        
      51       27       51 1        
      52       28       29 1        
      53       28       52 1        

