#        1GCZ_R01_S0001_C0000_L00017_S0001_C0031_G0010_E0001.mol2
#        Tue Jun  6 10:01:25 2017
#        Descriptor:      2    13    13     9     9    15
#        Energy - RMSD - RMSD MassCentre:     -66.5543    999.9999    999.9999
#        Receptor:       1  Surface Point:     1  Conformer:     0
#        Ligand:        17  Surface Point:     1  Conformer:    31
#        BUDE Formal Charge: 0
#        ATOM Count: 52
#        Heavy ATOM Count: 29
@<TRIPOS>MOLECULE
ZINC61282001_1GCZ_R01_S0001_C0000_L00017_S0001_C0031_G0010_E0001
 52 53 0 0 0
SMALL
USER_CHARGES
@<TRIPOS>ATOM
       1 C1         2.5400    2.2875    5.5475 C.3       1 <0>        -0.1391 
       2 C2         2.7472    1.7059    4.1520 C.3       1 <0>        -0.1418 
       3 C3         1.4813    1.0165    3.7020 C.2       1 <0>         0.5169 
       4 O1         1.4931   -0.1861    3.4444 O.2       1 <0>        -0.5335 
       5 N1         0.3527    1.7103    3.5840 N.am      1 <0>        -0.7285 
       6 C4        -0.8796    1.0393    3.1460 C.3       1 <0>         0.1288 
       7 C5        -1.4491    0.2369    4.2914 C.2       1 <0>         0.4630 
       8 O2        -1.4994   -0.9548    4.2202 O.2       1 <0>        -0.4988 
       9 O3        -1.9018    0.8664    5.3965 O.3       1 <0>        -0.3175 
      10 C6        -2.4324    0.0647    6.4551 C.3       1 <0>         0.0731 
      11 C7        -2.9512    0.9696    7.5689 C.3       1 <0>        -0.1692 
      12 C8        -1.3454   -0.8305    7.0005 C.2       1 <0>         0.5202 
      13 O4        -1.4900   -2.0519    6.9887 O.2       1 <0>        -0.4963 
      14 N2        -0.2312   -0.2980    7.4942 N.am      1 <0>        -0.6538 
      15 C9         0.7881   -1.1354    8.0058 C.ar      1 <0>         0.2101 
      16 C10        0.8502   -2.4928    7.6692 C.ar      1 <0>        -0.1321 
      17 C11        1.8469   -3.2944    8.2384 C.ar      1 <0>        -0.0675 
      18 C12        2.7713   -2.7420    9.1342 C.ar      1 <0>        -0.1401 
      19 C13        2.7272   -1.3767    9.4402 C.ar      1 <0>        -0.0656 
      20 C14        1.7217   -0.5758    8.8860 C.ar      1 <0>        -0.1718 
      21 C15        1.5655    0.8652    9.1860 C.2       1 <0>         0.5702 
      22 O5         0.6504    1.5048    8.6696 O.2       1 <0>        -0.5422 
      23 N3         2.4145    1.4675   10.0138 N.am      1 <0>        -0.7214 
      24 C16        2.2593    2.8986   10.3118 C.3       1 <0>         0.2043 
      25 C17        2.7113    3.7114    9.1221 C.2       1 <0>        -0.0464 
      26 C18        1.9175    4.3320    8.2388 C.2       1 <0>        -0.1782 
      27 C19        2.8772    4.9634    7.3056 C.2       1 <0>        -0.2183 
      28 C20        4.0758    4.6275    7.7902 C.2       1 <0>        -0.0240 
      29 O6         4.0862    3.8318    8.9335 O.3       1 <0>        -0.1712 
      30 H1         2.3096    1.4840    6.2441 H         1 <0>         0.0628 
      31 H2         3.4477    2.7956    5.8663 H         1 <0>         0.0628 
      32 H3         1.7152    2.9967    5.5253 H         1 <0>         0.0640 
      33 H4         3.5626    0.9860    4.1757 H         1 <0>         0.0966 
      34 H5         2.9899    2.5070    3.4569 H         1 <0>         0.0966 
      35 H6         0.3418    2.6980    3.7953 H         1 <0>         0.4131 
      36 H7        -1.6062    1.7846    2.8294 H         1 <0>         0.1171 
      37 H8        -0.6554    0.3745    2.3145 H         1 <0>         0.1171 
      38 H9        -3.2477   -0.5468    6.0742 H         1 <0>         0.1185 
      39 H10       -2.1378    1.5893    7.9403 H         1 <0>         0.0777 
      40 H11       -3.7435    1.6053    7.1792 H         1 <0>         0.0803 
      41 H12       -3.3417    0.3583    8.3797 H         1 <0>         0.0842 
      42 H13       -0.1126    0.7049    7.5040 H         1 <0>         0.4245 
      43 H14        0.1330   -2.9172    6.9821 H         1 <0>         0.1486 
      44 H15        1.8946   -4.3447    7.9910 H         1 <0>         0.1348 
      45 H16        3.5269   -3.3670    9.5870 H         1 <0>         0.1332 
      46 H17        3.4659   -0.9487   10.1016 H         1 <0>         0.1296 
      47 H18        3.1655    0.9414   10.4373 H         1 <0>         0.4054 
      48 H19        2.8646    3.1556   11.1785 H         1 <0>         0.1035 
      49 H20        1.2138    3.1132   10.5223 H         1 <0>         0.0890 
      50 H21        0.8395    4.3793    8.1922 H         1 <0>         0.1520 
      51 H22        2.6610    5.5649    6.4351 H         1 <0>         0.1526 
      52 H23        5.0156    4.9245    7.3488 H         1 <0>         0.2068 
@<TRIPOS>BOND
       1        1        2 1        
       2        1       30 1        
       3        1       31 1        
       4        1       32 1        
       5        2        3 1        
       6        2       33 1        
       7        2       34 1        
       8        3        4 2        
       9        3        5 am       
      10        5        6 1        
      11        5       35 1        
      12        6        7 1        
      13        6       36 1        
      14        6       37 1        
      15        7        8 2        
      16        7        9 1        
      17        9       10 1        
      18       10       11 1        
      19       10       12 1        
      20       10       38 1        
      21       11       39 1        
      22       11       40 1        
      23       11       41 1        
      24       12       13 2        
      25       12       14 am       
      26       14       15 1        
      27       14       42 1        
      28       15       20 ar       
      29       15       16 ar       
      30       16       17 ar       
      31       16       43 1        
      32       17       18 ar       
      33       17       44 1        
      34       18       19 ar       
      35       18       45 1        
      36       19       20 ar       
      37       19       46 1        
      38       20       21 1        
      39       21       22 2        
      40       21       23 am       
      41       23       24 1        
      42       23       47 1        
      43       24       25 1        
      44       24       48 1        
      45       24       49 1        
      46       25       29 1        
      47       25       26 2        
      48       26       27 1        
      49       26       50 1        
      50       27       28 2        
      51       27       51 1        
      52       28       29 1        
      53       28       52 1        

