#        1GCZ_R01_S0001_C0000_L00017_S0001_C0031_G0010_E0001.mol2
#        Tue Jun  6 14:19:17 2017
#        Descriptor:     36    19    18    10     9    15
#        Energy - RMSD - RMSD MassCentre:     -67.0389    999.9999    999.9999
#        Receptor:       1  Surface Point:     1  Conformer:     0
#        Ligand:        17  Surface Point:     1  Conformer:    31
#        BUDE Formal Charge: 0
#        ATOM Count: 52
#        Heavy ATOM Count: 29
@<TRIPOS>MOLECULE
ZINC61282001_1GCZ_R01_S0001_C0000_L00017_S0001_C0031_G0010_E0001
 52 53 0 0 0
SMALL
USER_CHARGES
@<TRIPOS>ATOM
       1 C1         0.6344    2.5660    5.6501 C.3       1 <0>        -0.1391 
       2 C2        -0.2579    1.9054    4.6033 C.3       1 <0>        -0.1418 
       3 C3        -0.7058    0.5536    5.1057 C.2       1 <0>         0.5169 
       4 O1        -0.4099   -0.4643    4.4819 O.2       1 <0>        -0.5335 
       5 N1        -1.4208    0.4637    6.2235 N.am      1 <0>        -0.7285 
       6 C4        -1.8568   -0.8521    6.7127 C.3       1 <0>         0.1288 
       7 C5        -0.6897   -1.5601    7.3583 C.2       1 <0>         0.4630 
       8 O2        -0.2558   -2.5625    6.8739 O.2       1 <0>        -0.4988 
       9 O3        -0.1363   -1.0602    8.4836 O.3       1 <0>        -0.3175 
      10 C6         0.9668   -1.7652    9.0589 C.3       1 <0>         0.0731 
      11 C7         1.3913   -1.0782   10.3536 C.3       1 <0>        -0.1692 
      12 C8         2.1235   -1.7663    8.0882 C.2       1 <0>         0.5202 
      13 O4         2.5947   -2.8315    7.6930 O.2       1 <0>        -0.4963 
      14 N2         2.6333   -0.6148    7.6605 N.am      1 <0>        -0.6538 
      15 C9         3.7173   -0.6142    6.7510 C.ar      1 <0>         0.2101 
      16 C10        4.0256   -1.7463    5.9875 C.ar      1 <0>        -0.1321 
      17 C11        5.1374   -1.7166    5.1372 C.ar      1 <0>        -0.0675 
      18 C12        5.9308   -0.5654    5.0524 C.ar      1 <0>        -0.1401 
      19 C13        5.5979    0.5763    5.7910 C.ar      1 <0>        -0.0656 
      20 C14        4.4969    0.5445    6.6549 C.ar      1 <0>        -0.1718 
      21 C15        4.0950    1.6839    7.5099 C.2       1 <0>         0.5702 
      22 O5         3.1207    1.5805    8.2536 O.2       1 <0>        -0.5422 
      23 N3         4.7875    2.8188    7.4735 N.am      1 <0>        -0.7214 
      24 C16        4.3884    3.9504    8.3227 C.3       1 <0>         0.2043 
      25 C17        3.1458    4.5921    7.7532 C.2       1 <0>        -0.0464 
      26 C18        1.8985    4.4597    8.2244 C.2       1 <0>        -0.1782 
      27 C19        1.0964    5.2918    7.2999 C.2       1 <0>        -0.2183 
      28 C20        1.9933    5.7890    6.4438 C.2       1 <0>        -0.0240 
      29 O6         3.3187    5.4057    6.6358 O.3       1 <0>        -0.1712 
      30 H1         1.5117    1.9455    5.8217 H         1 <0>         0.0628 
      31 H2         0.9464    3.5455    5.2937 H         1 <0>         0.0628 
      32 H3         0.0806    2.6770    6.5799 H         1 <0>         0.0640 
      33 H4         0.2994    1.7809    3.6771 H         1 <0>         0.0966 
      34 H5        -1.1293    2.5311    4.4217 H         1 <0>         0.0966 
      35 H6        -1.6644    1.2989    6.7366 H         1 <0>         0.4131 
      36 H7        -2.6515   -0.7227    7.4443 H         1 <0>         0.1171 
      37 H8        -2.2242   -1.4463    5.8786 H         1 <0>         0.1171 
      38 H9         0.6717   -2.7906    9.2715 H         1 <0>         0.1185 
      39 H10        1.6743   -0.0493   10.1417 H         1 <0>         0.0777 
      40 H11        0.5621   -1.0892   11.0579 H         1 <0>         0.0803 
      41 H12        2.2395   -1.6072   10.7830 H         1 <0>         0.0842 
      42 H13        2.2465    0.2598    7.9851 H         1 <0>         0.4245 
      43 H14        3.4149   -2.6343    6.0586 H         1 <0>         0.1486 
      44 H15        5.3870   -2.5898    4.5527 H         1 <0>         0.1348 
      45 H16        6.7994   -0.5521    4.4106 H         1 <0>         0.1332 
      46 H17        6.1909    1.4735    5.6926 H         1 <0>         0.1296 
      47 H18        5.5873    2.9026    6.8624 H         1 <0>         0.4054 
      48 H19        5.1934    4.6815    8.3534 H         1 <0>         0.1035 
      49 H20        4.1837    3.5928    9.3295 H         1 <0>         0.0890 
      50 H21        1.5352    3.8930    9.0690 H         1 <0>         0.1520 
      51 H22        0.0307    5.4653    7.3155 H         1 <0>         0.1526 
      52 H23        1.7512    6.4492    5.6242 H         1 <0>         0.2068 
@<TRIPOS>BOND
       1        1        2 1        
       2        1       30 1        
       3        1       31 1        
       4        1       32 1        
       5        2        3 1        
       6        2       33 1        
       7        2       34 1        
       8        3        4 2        
       9        3        5 am       
      10        5        6 1        
      11        5       35 1        
      12        6        7 1        
      13        6       36 1        
      14        6       37 1        
      15        7        8 2        
      16        7        9 1        
      17        9       10 1        
      18       10       11 1        
      19       10       12 1        
      20       10       38 1        
      21       11       39 1        
      22       11       40 1        
      23       11       41 1        
      24       12       13 2        
      25       12       14 am       
      26       14       15 1        
      27       14       42 1        
      28       15       20 ar       
      29       15       16 ar       
      30       16       17 ar       
      31       16       43 1        
      32       17       18 ar       
      33       17       44 1        
      34       18       19 ar       
      35       18       45 1        
      36       19       20 ar       
      37       19       46 1        
      38       20       21 1        
      39       21       22 2        
      40       21       23 am       
      41       23       24 1        
      42       23       47 1        
      43       24       25 1        
      44       24       48 1        
      45       24       49 1        
      46       25       29 1        
      47       25       26 2        
      48       26       27 1        
      49       26       50 1        
      50       27       28 2        
      51       27       51 1        
      52       28       29 1        
      53       28       52 1        

