#        1GCZ_R01_S0001_C0000_L00017_S0001_C0032_G0010_E0001.mol2
#        Tue Jun  6 10:01:25 2017
#        Descriptor:     33    28     6    10     6    15
#        Energy - RMSD - RMSD MassCentre:     -53.0629    999.9999    999.9999
#        Receptor:       1  Surface Point:     1  Conformer:     0
#        Ligand:        17  Surface Point:     1  Conformer:    32
#        BUDE Formal Charge: 0
#        ATOM Count: 52
#        Heavy ATOM Count: 29
@<TRIPOS>MOLECULE
ZINC61282001_1GCZ_R01_S0001_C0000_L00017_S0001_C0032_G0010_E0001
 52 53 0 0 0
SMALL
USER_CHARGES
@<TRIPOS>ATOM
       1 C1         4.1084   -4.1722    8.6264 C.3       1 <0>        -0.1391 
       2 C2         3.7659   -5.1777    7.5309 C.3       1 <0>        -0.1418 
       3 C3         2.2960   -5.5166    7.6017 C.2       1 <0>         0.5169 
       4 O1         1.5623   -5.2784    6.6438 O.2       1 <0>        -0.5335 
       5 N1         1.7946   -6.0730    8.7007 N.am      1 <0>        -0.7285 
       6 C4         0.3638   -6.4029    8.7696 C.3       1 <0>         0.1288 
       7 C5        -0.4322   -5.1408    9.0007 C.2       1 <0>         0.4630 
       8 O2        -1.0408   -4.9952   10.0187 O.2       1 <0>        -0.4988 
       9 O3        -0.4564   -4.1762    8.0566 O.3       1 <0>        -0.3175 
      10 C6        -1.2240   -2.9988    8.3201 C.3       1 <0>         0.0731 
      11 C7        -2.6862   -3.3806    8.5327 C.3       1 <0>        -0.1692 
      12 C8        -1.1166   -2.0557    7.1458 C.2       1 <0>         0.5202 
      13 O4        -2.1335   -1.6647    6.5750 O.2       1 <0>        -0.4963 
      14 N2         0.0784   -1.6477    6.7282 N.am      1 <0>        -0.6538 
      15 C9         0.1808   -0.7640    5.6279 C.ar      1 <0>         0.2101 
      16 C10       -0.8531   -0.6474    4.6912 C.ar      1 <0>        -0.1321 
      17 C11       -0.6875    0.2026    3.5911 C.ar      1 <0>        -0.0675 
      18 C12        0.5001    0.9280    3.4318 C.ar      1 <0>        -0.1401 
      19 C13        1.5166    0.8355    4.3898 C.ar      1 <0>        -0.0656 
      20 C14        1.3616   -0.0263    5.4820 C.ar      1 <0>        -0.1718 
      21 C15        2.3980   -0.2267    6.5194 C.2       1 <0>         0.5702 
      22 O5         2.1962   -1.0092    7.4467 O.2       1 <0>        -0.5422 
      23 N3         3.5469    0.4395    6.4484 N.am      1 <0>        -0.7214 
      24 C16        4.5763    0.2406    7.4788 C.3       1 <0>         0.2043 
      25 C17        5.9164    0.6836    6.9422 C.2       1 <0>        -0.0464 
      26 C18        6.1543    1.1905    5.7248 C.2       1 <0>        -0.1782 
      27 C19        7.6121    1.4457    5.7426 C.2       1 <0>        -0.2183 
      28 C20        7.9974    1.0628    6.9631 C.2       1 <0>        -0.0240 
      29 O6         7.0057    0.5593    7.8016 O.3       1 <0>        -0.1712 
      30 H1         3.8942   -4.6097    9.5993 H         1 <0>         0.0628 
      31 H2         5.1646   -3.9179    8.5671 H         1 <0>         0.0628 
      32 H3         3.5102   -3.2734    8.4927 H         1 <0>         0.0640 
      33 H4         4.3533   -6.0827    7.6718 H         1 <0>         0.0966 
      34 H5         3.9914   -4.7459    6.5580 H         1 <0>         0.0966 
      35 H6         2.3962   -6.2691    9.4880 H         1 <0>         0.4131 
      36 H7         0.0513   -6.8618    7.8340 H         1 <0>         0.1171 
      37 H8         0.1898   -7.0960    9.5900 H         1 <0>         0.1171 
      38 H9        -0.8428   -2.5090    9.2138 H         1 <0>         0.1185 
      39 H10       -3.0625   -3.8813    7.6431 H         1 <0>         0.0777 
      40 H11       -2.7650   -4.0495    9.3869 H         1 <0>         0.0803 
      41 H12       -3.2714   -2.4826    8.7191 H         1 <0>         0.0842 
      42 H13        0.9134   -1.9688    7.1968 H         1 <0>         0.4245 
      43 H14       -1.7656   -1.2117    4.8139 H         1 <0>         0.1486 
      44 H15       -1.4769    0.2899    2.8593 H         1 <0>         0.1348 
      45 H16        0.6328    1.5679    2.5720 H         1 <0>         0.1332 
      46 H17        2.4143    1.4262    4.2817 H         1 <0>         0.1296 
      47 H18        3.7115    1.0819    5.6865 H         1 <0>         0.4054 
      48 H19        4.6221   -0.8131    7.7460 H         1 <0>         0.1035 
      49 H20        4.3253    0.8280    8.3593 H         1 <0>         0.0890 
      50 H21        5.4718    1.3793    4.9094 H         1 <0>         0.1520 
      51 H22        8.2256    1.8545    4.9536 H         1 <0>         0.1526 
      52 H23        9.0143    1.1124    7.3234 H         1 <0>         0.2068 
@<TRIPOS>BOND
       1        1        2 1        
       2        1       30 1        
       3        1       31 1        
       4        1       32 1        
       5        2        3 1        
       6        2       33 1        
       7        2       34 1        
       8        3        4 2        
       9        3        5 am       
      10        5        6 1        
      11        5       35 1        
      12        6        7 1        
      13        6       36 1        
      14        6       37 1        
      15        7        8 2        
      16        7        9 1        
      17        9       10 1        
      18       10       11 1        
      19       10       12 1        
      20       10       38 1        
      21       11       39 1        
      22       11       40 1        
      23       11       41 1        
      24       12       13 2        
      25       12       14 am       
      26       14       15 1        
      27       14       42 1        
      28       15       20 ar       
      29       15       16 ar       
      30       16       17 ar       
      31       16       43 1        
      32       17       18 ar       
      33       17       44 1        
      34       18       19 ar       
      35       18       45 1        
      36       19       20 ar       
      37       19       46 1        
      38       20       21 1        
      39       21       22 2        
      40       21       23 am       
      41       23       24 1        
      42       23       47 1        
      43       24       25 1        
      44       24       48 1        
      45       24       49 1        
      46       25       29 1        
      47       25       26 2        
      48       26       27 1        
      49       26       50 1        
      50       27       28 2        
      51       27       51 1        
      52       28       29 1        
      53       28       52 1        

