#        1GCZ_R01_S0001_C0000_L00017_S0001_C0032_G0010_E0001.mol2
#        Tue Jun  6 14:19:19 2017
#        Descriptor:      2    10    35     8     5    15
#        Energy - RMSD - RMSD MassCentre:     -56.4571    999.9999    999.9999
#        Receptor:       1  Surface Point:     1  Conformer:     0
#        Ligand:        17  Surface Point:     1  Conformer:    32
#        BUDE Formal Charge: 0
#        ATOM Count: 52
#        Heavy ATOM Count: 29
@<TRIPOS>MOLECULE
ZINC61282001_1GCZ_R01_S0001_C0000_L00017_S0001_C0032_G0010_E0001
 52 53 0 0 0
SMALL
USER_CHARGES
@<TRIPOS>ATOM
       1 C1         2.5393   -4.9346    5.7280 C.3       1 <0>        -0.1391 
       2 C2         3.4361   -4.2811    6.7754 C.3       1 <0>        -0.1418 
       3 C3         3.5387   -2.8007    6.4958 C.2       1 <0>         0.5169 
       4 O1         3.1512   -1.9874    7.3332 O.2       1 <0>        -0.5335 
       5 N1         4.0484   -2.3759    5.3431 N.am      1 <0>        -0.7285 
       6 C4         4.1483   -0.9348    5.0709 C.3       1 <0>         0.1288 
       7 C5         2.7848   -0.3962    4.7091 C.2       1 <0>         0.4630 
       8 O2         2.5819    0.0300    3.6114 O.2       1 <0>        -0.4988 
       9 O3         1.7943   -0.3963    5.6264 O.3       1 <0>        -0.3175 
      10 C6         0.5203    0.1239    5.2378 C.3       1 <0>         0.0731 
      11 C7         0.6716    1.5837    4.8196 C.3       1 <0>        -0.1692 
      12 C8        -0.4366    0.0314    6.4024 C.2       1 <0>         0.5202 
      13 O4        -1.0056    1.0414    6.8134 O.2       1 <0>        -0.4963 
      14 N2        -0.6640   -1.1428    6.9840 N.am      1 <0>        -0.6538 
      15 C9        -1.5602   -1.2310    8.0754 C.ar      1 <0>         0.2101 
      16 C10       -1.8748   -0.1080    8.8497 C.ar      1 <0>        -0.1321 
      17 C11       -2.7277   -0.2524    9.9505 C.ar      1 <0>        -0.0675 
      18 C12       -3.2599   -1.5078   10.2713 C.ar      1 <0>        -0.1401 
      19 C13       -2.9710   -2.6209    9.4731 C.ar      1 <0>        -0.0656 
      20 C14       -2.1051   -2.4836    8.3817 C.ar      1 <0>        -0.1718 
      21 C15       -1.7037   -3.6098    7.5093 C.2       1 <0>         0.5702 
      22 O5        -0.9296   -3.4164    6.5732 O.2       1 <0>        -0.5422 
      23 N3        -2.1804   -4.8302    7.7379 N.am      1 <0>        -0.7214 
      24 C16       -1.7819   -5.9487    6.8713 C.3       1 <0>         0.2043 
      25 C17       -2.0252   -7.2535    7.5914 C.2       1 <0>        -0.0464 
      26 C18       -2.5325   -7.3961    8.8235 C.2       1 <0>        -0.1782 
      27 C19       -2.5511   -8.8635    9.0149 C.2       1 <0>        -0.2183 
      28 C20       -2.0667   -9.3502    7.8690 C.2       1 <0>        -0.0240 
      29 O6        -1.6971   -8.4185    6.9018 O.3       1 <0>        -0.1712 
      30 H1         2.9728   -4.7919    4.7403 H         1 <0>         0.0628 
      31 H2         2.4546   -5.9990    5.9372 H         1 <0>         0.0628 
      32 H3         1.5523   -4.4782    5.7608 H         1 <0>         0.0640 
      33 H4         4.4277   -4.7269    6.7340 H         1 <0>         0.0966 
      34 H5         3.0100   -4.4339    7.7648 H         1 <0>         0.0966 
      35 H6         4.3669   -3.0428    4.6546 H         1 <0>         0.4131 
      36 H7         4.5165   -0.4224    5.9571 H         1 <0>         0.1171 
      37 H8         4.8346   -0.7681    4.2434 H         1 <0>         0.1171 
      38 H9         0.1310   -0.4548    4.4027 H         1 <0>         0.1185 
      39 H10        1.0726    2.1588    5.6516 H         1 <0>         0.0777 
      40 H11        1.3506    1.6488    3.9722 H         1 <0>         0.0803 
      41 H12       -0.3006    1.9822    4.5378 H         1 <0>         0.0842 
      42 H13       -0.1967   -1.9720    6.6465 H         1 <0>         0.4245 
      43 H14       -1.4590    0.8577    8.6030 H         1 <0>         0.1486 
      44 H15       -2.9668    0.6077   10.5582 H         1 <0>         0.1348 
      45 H16       -3.9018   -1.6200   11.1325 H         1 <0>         0.1332 
      46 H17       -3.4147   -3.5785    9.7028 H         1 <0>         0.1296 
      47 H18       -2.8161   -4.9878    8.5068 H         1 <0>         0.4054 
      48 H19       -0.7252   -5.8594    6.6281 H         1 <0>         0.1035 
      49 H20       -2.3688   -5.9242    5.9557 H         1 <0>         0.0890 
      50 H21       -2.8577   -6.6450    9.5281 H         1 <0>         0.1520 
      51 H22       -2.8858   -9.4175    9.8792 H         1 <0>         0.1526 
      52 H23       -1.9401  -10.4022    7.6601 H         1 <0>         0.2068 
@<TRIPOS>BOND
       1        1        2 1        
       2        1       30 1        
       3        1       31 1        
       4        1       32 1        
       5        2        3 1        
       6        2       33 1        
       7        2       34 1        
       8        3        4 2        
       9        3        5 am       
      10        5        6 1        
      11        5       35 1        
      12        6        7 1        
      13        6       36 1        
      14        6       37 1        
      15        7        8 2        
      16        7        9 1        
      17        9       10 1        
      18       10       11 1        
      19       10       12 1        
      20       10       38 1        
      21       11       39 1        
      22       11       40 1        
      23       11       41 1        
      24       12       13 2        
      25       12       14 am       
      26       14       15 1        
      27       14       42 1        
      28       15       20 ar       
      29       15       16 ar       
      30       16       17 ar       
      31       16       43 1        
      32       17       18 ar       
      33       17       44 1        
      34       18       19 ar       
      35       18       45 1        
      36       19       20 ar       
      37       19       46 1        
      38       20       21 1        
      39       21       22 2        
      40       21       23 am       
      41       23       24 1        
      42       23       47 1        
      43       24       25 1        
      44       24       48 1        
      45       24       49 1        
      46       25       29 1        
      47       25       26 2        
      48       26       27 1        
      49       26       50 1        
      50       27       28 2        
      51       27       51 1        
      52       28       29 1        
      53       28       52 1        

