#        1GCZ_R01_S0001_C0000_L00017_S0001_C0033_G0010_E0001.mol2
#        Tue Jun  6 10:01:26 2017
#        Descriptor:     22     7     1     8     9    13
#        Energy - RMSD - RMSD MassCentre:     -76.1300    999.9999    999.9999
#        Receptor:       1  Surface Point:     1  Conformer:     0
#        Ligand:        17  Surface Point:     1  Conformer:    33
#        BUDE Formal Charge: 0
#        ATOM Count: 52
#        Heavy ATOM Count: 29
@<TRIPOS>MOLECULE
ZINC61282001_1GCZ_R01_S0001_C0000_L00017_S0001_C0033_G0010_E0001
 52 53 0 0 0
SMALL
USER_CHARGES
@<TRIPOS>ATOM
       1 C1         0.9378   -1.3505   -2.0319 C.3       1 <0>        -0.1391 
       2 C2         0.1430   -0.6530   -0.9317 C.3       1 <0>        -0.1418 
       3 C3         0.7367    0.7105   -0.6703 C.2       1 <0>         0.5169 
       4 O1         1.7146    1.0899   -1.3127 O.2       1 <0>        -0.5335 
       5 N1         0.2019    1.5020    0.2553 N.am      1 <0>        -0.7285 
       6 C4        -0.9668    1.0485    1.0230 C.3       1 <0>         0.1288 
       7 C5        -0.5245    0.0575    2.0729 C.2       1 <0>         0.4630 
       8 O2        -0.8868   -1.0796    2.0128 O.2       1 <0>        -0.4988 
       9 O3         0.2810    0.4563    3.0802 O.3       1 <0>        -0.3175 
      10 C6         0.6736   -0.5177    4.0508 C.3       1 <0>         0.0731 
      11 C7        -0.5670   -1.0824    4.7368 C.3       1 <0>        -0.1692 
      12 C8         1.5659    0.1317    5.0816 C.2       1 <0>         0.5202 
      13 O4         2.7042   -0.2955    5.2673 O.2       1 <0>        -0.4963 
      14 N2         1.1206    1.1660    5.7891 N.am      1 <0>        -0.6538 
      15 C9         1.9554    1.7754    6.7554 C.ar      1 <0>         0.2101 
      16 C10        3.3435    1.5954    6.7334 C.ar      1 <0>        -0.1321 
      17 C11        4.1252    2.1769    7.7388 C.ar      1 <0>        -0.0675 
      18 C12        3.5230    2.9307    8.7542 C.ar      1 <0>        -0.1401 
      19 C13        2.1385    3.1377    8.7520 C.ar      1 <0>        -0.0656 
      20 C14        1.3519    2.5438    7.7580 C.ar      1 <0>        -0.1718 
      21 C15       -0.1220    2.6661    7.6993 C.2       1 <0>         0.5702 
      22 O5        -0.7498    2.1073    6.8012 O.2       1 <0>        -0.5422 
      23 N3        -0.7666    3.3802    8.6177 N.am      1 <0>        -0.7214 
      24 C16       -2.2304    3.5017    8.5596 C.3       1 <0>         0.2043 
      25 C17       -2.8604    2.2038    9.0051 C.2       1 <0>        -0.0464 
      26 C18       -3.4382    1.9696   10.1912 C.2       1 <0>        -0.1782 
      27 C19       -3.8765    0.5601   10.0826 C.2       1 <0>        -0.2183 
      28 C20       -3.5013    0.1934    8.8542 C.2       1 <0>        -0.0240 
      29 O6        -2.8447    1.1546    8.0890 O.3       1 <0>        -0.1712 
      30 H1         1.9705   -1.4713   -1.7115 H         1 <0>         0.0628 
      31 H2         0.5019   -2.3275   -2.2295 H         1 <0>         0.0628 
      32 H3         0.9067   -0.7488   -2.9378 H         1 <0>         0.0640 
      33 H4         0.1851   -1.2468   -0.0210 H         1 <0>         0.0966 
      34 H5        -0.8928   -0.5428   -1.2461 H         1 <0>         0.0966 
      35 H6         0.5981    2.4142    0.4309 H         1 <0>         0.4131 
      36 H7        -1.4374    1.9021    1.5063 H         1 <0>         0.1171 
      37 H8        -1.6793    0.5722    0.3529 H         1 <0>         0.1171 
      38 H9         1.2152   -1.3230    3.5590 H         1 <0>         0.1185 
      39 H10       -1.1143   -0.2744    5.2176 H         1 <0>         0.0777 
      40 H11       -1.2035   -1.5619    3.9961 H         1 <0>         0.0803 
      41 H12       -0.2662   -1.8129    5.4848 H         1 <0>         0.0842 
      42 H13        0.1859    1.5167    5.6366 H         1 <0>         0.4245 
      43 H14        3.8046    1.0095    5.9521 H         1 <0>         0.1486 
      44 H15        5.1957    2.0338    7.7337 H         1 <0>         0.1348 
      45 H16        4.1265    3.3616    9.5395 H         1 <0>         0.1332 
      46 H17        1.6843    3.7515    9.5157 H         1 <0>         0.1296 
      47 H18       -0.2501    3.8386    9.3548 H         1 <0>         0.4054 
      48 H19       -2.5351    3.7218    7.5385 H         1 <0>         0.1035 
      49 H20       -2.5533    4.3066    9.2164 H         1 <0>         0.0890 
      50 H21       -3.5683    2.6266   11.0384 H         1 <0>         0.1520 
      51 H22       -4.3893   -0.0360   10.8228 H         1 <0>         0.1526 
      52 H23       -3.6669   -0.7879    8.4350 H         1 <0>         0.2068 
@<TRIPOS>BOND
       1        1        2 1        
       2        1       30 1        
       3        1       31 1        
       4        1       32 1        
       5        2        3 1        
       6        2       33 1        
       7        2       34 1        
       8        3        4 2        
       9        3        5 am       
      10        5        6 1        
      11        5       35 1        
      12        6        7 1        
      13        6       36 1        
      14        6       37 1        
      15        7        8 2        
      16        7        9 1        
      17        9       10 1        
      18       10       11 1        
      19       10       12 1        
      20       10       38 1        
      21       11       39 1        
      22       11       40 1        
      23       11       41 1        
      24       12       13 2        
      25       12       14 am       
      26       14       15 1        
      27       14       42 1        
      28       15       20 ar       
      29       15       16 ar       
      30       16       17 ar       
      31       16       43 1        
      32       17       18 ar       
      33       17       44 1        
      34       18       19 ar       
      35       18       45 1        
      36       19       20 ar       
      37       19       46 1        
      38       20       21 1        
      39       21       22 2        
      40       21       23 am       
      41       23       24 1        
      42       23       47 1        
      43       24       25 1        
      44       24       48 1        
      45       24       49 1        
      46       25       29 1        
      47       25       26 2        
      48       26       27 1        
      49       26       50 1        
      50       27       28 2        
      51       27       51 1        
      52       28       29 1        
      53       28       52 1        

