#        1GCZ_R01_S0001_C0000_L00017_S0001_C0033_G0010_E0001.mol2
#        Tue Jun  6 14:19:21 2017
#        Descriptor:      4    11    18     8     9    13
#        Energy - RMSD - RMSD MassCentre:     -72.9026    999.9999    999.9999
#        Receptor:       1  Surface Point:     1  Conformer:     0
#        Ligand:        17  Surface Point:     1  Conformer:    33
#        BUDE Formal Charge: 0
#        ATOM Count: 52
#        Heavy ATOM Count: 29
@<TRIPOS>MOLECULE
ZINC61282001_1GCZ_R01_S0001_C0000_L00017_S0001_C0033_G0010_E0001
 52 53 0 0 0
SMALL
USER_CHARGES
@<TRIPOS>ATOM
       1 C1         0.5154   -1.4776   -2.0319 C.3       1 <0>        -0.1391 
       2 C2        -0.1462   -0.6527   -0.9317 C.3       1 <0>        -0.1418 
       3 C3         0.6752    0.5870   -0.6703 C.2       1 <0>         0.5169 
       4 O1         1.7041    0.7908   -1.3127 O.2       1 <0>        -0.5335 
       5 N1         0.2860    1.4593    0.2553 N.am      1 <0>        -0.7285 
       6 C4        -0.9437    1.2157    1.0230 C.3       1 <0>         0.1288 
       7 C5        -0.6802    0.1629    2.0729 C.2       1 <0>         0.4630 
       8 O2        -1.2345   -0.8940    2.0128 O.2       1 <0>        -0.4988 
       9 O3         0.1823    0.4158    3.0802 O.3       1 <0>        -0.3175 
      10 C6         0.3998   -0.6116    4.0508 C.3       1 <0>         0.0731 
      11 C7        -0.9200   -0.9523    4.7368 C.3       1 <0>        -0.1692 
      12 C8         1.3913   -0.1270    5.0816 C.2       1 <0>         0.5202 
      13 O4         2.4381   -0.7454    5.2673 O.2       1 <0>        -0.4963 
      14 N2         1.1324    0.9689    5.7891 N.am      1 <0>        -0.6538 
      15 C9         2.0603    1.4241    6.7554 C.ar      1 <0>         0.2101 
      16 C10        3.3961    1.0058    6.7334 C.ar      1 <0>        -0.1321 
      17 C11        4.2669    1.4427    7.7388 C.ar      1 <0>        -0.0675 
      18 C12        3.8048    2.2896    8.7542 C.ar      1 <0>        -0.1401 
      19 C13        2.4772    2.7339    8.7520 C.ar      1 <0>        -0.0656 
      20 C14        1.5995    2.2855    7.7580 C.ar      1 <0>        -0.1718 
      21 C15        0.1692    2.6620    7.6993 C.2       1 <0>         0.5702 
      22 O5        -0.5461    2.2207    6.8012 O.2       1 <0>        -0.5422 
      23 N3        -0.3416    3.4771    8.6177 N.am      1 <0>        -0.7214 
      24 C16       -1.7621    3.8510    8.5596 C.3       1 <0>         0.2043 
      25 C17       -2.6080    2.6822    9.0051 C.2       1 <0>        -0.0464 
      26 C18       -3.2176    2.5519   10.1912 C.2       1 <0>        -0.1782 
      27 C19       -3.8940    1.2400   10.0826 C.2       1 <0>        -0.2183 
      28 C20       -3.5882    0.8137    8.8542 C.2       1 <0>        -0.0240 
      29 O6        -2.7747    1.6462    8.0890 O.3       1 <0>        -0.1712 
      30 H1         1.5114   -1.7759   -1.7115 H         1 <0>         0.0628 
      31 H2        -0.0835   -2.3641   -2.2295 H         1 <0>         0.0628 
      32 H3         0.5892   -0.8796   -2.9378 H         1 <0>         0.0640 
      33 H4        -0.2079   -1.2448   -0.0210 H         1 <0>         0.0966 
      34 H5        -1.1471   -0.3643   -1.2461 H         1 <0>         0.0966 
      35 H6         0.8346    2.2889    0.4309 H         1 <0>         0.4131 
      36 H7        -1.2589    2.1380    1.5063 H         1 <0>         0.1171 
      37 H8        -1.7281    0.8703    0.3529 H         1 <0>         0.1171 
      38 H9         0.7933   -1.4987    3.5590 H         1 <0>         0.1185 
      39 H10       -1.3187   -0.0615    5.2176 H         1 <0>         0.0777 
      40 H11       -1.6301   -1.3140    3.9961 H         1 <0>         0.0803 
      41 H12       -0.7506   -1.7240    5.4848 H         1 <0>         0.0842 
      42 H13        0.2728    1.4766    5.6366 H         1 <0>         0.4245 
      43 H14        3.7485    0.3487    5.9521 H         1 <0>         0.1486 
      44 H15        5.2963    1.1159    7.7337 H         1 <0>         0.1348 
      45 H16        4.4739    2.6092    9.5395 H         1 <0>         0.1332 
      46 H17        2.1365    3.4173    9.5157 H         1 <0>         0.1296 
      47 H18        0.2467    3.8389    9.3548 H         1 <0>         0.4054 
      48 H19       -2.0240    4.1207    7.5385 H         1 <0>         0.1035 
      49 H20       -1.9403    4.6997    9.2164 H         1 <0>         0.0890 
      50 H21       -3.2316    3.2215   11.0384 H         1 <0>         0.1520 
      51 H22       -4.5025    0.7419   10.8228 H         1 <0>         0.1526 
      52 H23       -3.9217   -0.1240    8.4350 H         1 <0>         0.2068 
@<TRIPOS>BOND
       1        1        2 1        
       2        1       30 1        
       3        1       31 1        
       4        1       32 1        
       5        2        3 1        
       6        2       33 1        
       7        2       34 1        
       8        3        4 2        
       9        3        5 am       
      10        5        6 1        
      11        5       35 1        
      12        6        7 1        
      13        6       36 1        
      14        6       37 1        
      15        7        8 2        
      16        7        9 1        
      17        9       10 1        
      18       10       11 1        
      19       10       12 1        
      20       10       38 1        
      21       11       39 1        
      22       11       40 1        
      23       11       41 1        
      24       12       13 2        
      25       12       14 am       
      26       14       15 1        
      27       14       42 1        
      28       15       20 ar       
      29       15       16 ar       
      30       16       17 ar       
      31       16       43 1        
      32       17       18 ar       
      33       17       44 1        
      34       18       19 ar       
      35       18       45 1        
      36       19       20 ar       
      37       19       46 1        
      38       20       21 1        
      39       21       22 2        
      40       21       23 am       
      41       23       24 1        
      42       23       47 1        
      43       24       25 1        
      44       24       48 1        
      45       24       49 1        
      46       25       29 1        
      47       25       26 2        
      48       26       27 1        
      49       26       50 1        
      50       27       28 2        
      51       27       51 1        
      52       28       29 1        
      53       28       52 1        

