#        1GCZ_R01_S0001_C0000_L00003_S0001_C0038_G0010_E0001.mol2
#        Tue Jun  6 09:55:08 2017
#        Descriptor:     26    12    35    14     9    15
#        Energy - RMSD - RMSD MassCentre:     -61.8582    999.9999    999.9999
#        Receptor:       1  Surface Point:     1  Conformer:     0
#        Ligand:         3  Surface Point:     1  Conformer:    38
#        BUDE Formal Charge: 0
#        ATOM Count: 58
#        Heavy ATOM Count: 30
@<TRIPOS>MOLECULE
ZINC61580633_1GCZ_R01_S0001_C0000_L00003_S0001_C0038_G0010_E0001
 58 59 0 0 0
SMALL
USER_CHARGES
@<TRIPOS>ATOM
       1 C1        13.2821    5.6394    4.2036 C.3       1 <0>        -0.1532 
       2 C2        13.0359    4.1462    4.0078 C.3       1 <0>        -0.1224 
       3 C3        11.8544    3.7081    4.8720 C.3       1 <0>        -0.1198 
       4 C4        11.6078    2.2129    4.6759 C.3       1 <0>         0.0610 
       5 O1        10.5021    1.8029    5.4847 O.3       1 <0>        -0.3878 
       6 C5        10.7471    2.0227    6.8764 C.3       1 <0>         0.0487 
       7 C6         9.5334    1.5662    7.6847 C.3       1 <0>         0.1244 
       8 N1         9.7853    1.7922    9.1151 N.am      1 <0>        -0.7216 
       9 C7         8.8591    1.4667   10.0125 C.2       1 <0>         0.5161 
      10 O2         9.0685    1.6554   11.2096 O.2       1 <0>        -0.5151 
      11 C8         7.5496    0.8655    9.5611 C.3       1 <0>         0.0490 
      12 O3         6.7795    1.8592    8.8798 O.3       1 <0>        -0.3194 
      13 C9         5.5686    1.5035    8.4005 C.2       1 <0>         0.5417 
      14 O4         5.1616    0.3637    8.5543 O.2       1 <0>        -0.5337 
      15 C10        4.7343    2.4967    7.6881 C.2       1 <0>        -0.2559 
      16 C11        5.1244    3.9058    7.4586 C.2       1 <0>        -0.0791 
      17 C12        4.1863    4.5930    6.8028 C.2       1 <0>        -0.2585 
      18 S1         2.7709    3.6076    6.4054 S.3       1 <0>         0.3028 
      19 C13        3.5246    2.2104    7.1880 C.2       1 <0>         0.0893 
      20 N2         2.9648    0.9650    7.3002 N.am      1 <0>        -0.6099 
      21 C14        1.7606    0.7276    6.7878 C.2       1 <0>         0.5551 
      22 O5         1.1492    1.6267    6.2128 O.2       1 <0>        -0.4939 
      23 C15        1.1574   -0.6183    6.9099 C.ar      1 <0>        -0.1466 
      24 C16       -0.1132   -0.8233    6.3588 C.ar      1 <0>        -0.0772 
      25 C17       -0.7664   -2.0527    6.5064 C.ar      1 <0>        -0.1241 
      26 C18       -0.1648   -3.0976    7.2173 C.ar      1 <0>        -0.0446 
      27 C19        1.1274   -2.9132    7.7236 C.ar      1 <0>        -0.1261 
      28 C20        1.7891   -1.6920    7.5487 C.ar      1 <0>        -0.0460 
      29 C21       -0.9115   -4.3947    7.4185 C.3       1 <0>        -0.0928 
      30 C22       -1.7158   -4.3219    8.7132 C.3       1 <0>        -0.1485 
      31 H1        13.5183    5.8334    5.2477 H         1 <0>         0.0567 
      32 H2        12.3884    6.1934    3.9243 H         1 <0>         0.0554 
      33 H3        14.1147    5.9541    3.5780 H         1 <0>         0.0557 
      34 H4        12.8118    3.9491    2.9614 H         1 <0>         0.0632 
      35 H5        13.9241    3.5900    4.3000 H         1 <0>         0.0635 
      36 H6        12.0775    3.9040    5.9186 H         1 <0>         0.0711 
      37 H7        10.9653    4.2630    4.5800 H         1 <0>         0.0704 
      38 H8        11.3837    2.0158    3.6296 H         1 <0>         0.0498 
      39 H9        12.4961    1.6569    4.9684 H         1 <0>         0.0505 
      40 H10       10.9211    3.0823    7.0518 H         1 <0>         0.0584 
      41 H11       11.6223    1.4549    7.1854 H         1 <0>         0.0702 
      42 H12        9.3590    0.5065    7.5107 H         1 <0>         0.0872 
      43 H13        8.6578    2.1339    7.3771 H         1 <0>         0.0805 
      44 H14       10.6612    2.1944    9.4170 H         1 <0>         0.4058 
      45 H15        7.7447    0.0338    8.8873 H         1 <0>         0.1008 
      46 H16        6.9958    0.5093   10.4272 H         1 <0>         0.0999 
      47 H17        6.0724    4.3084    7.7834 H         1 <0>         0.1557 
      48 H18        4.3004    5.6339    6.5389 H         1 <0>         0.1929 
      49 H19        3.4668    0.2268    7.7724 H         1 <0>         0.4317 
      50 H20       -0.5986   -0.0247    5.8176 H         1 <0>         0.1287 
      51 H21       -1.7438   -2.2012    6.0716 H         1 <0>         0.1326 
      52 H22        1.6073   -3.7270    8.2469 H         1 <0>         0.1342 
      53 H23        2.8054   -1.6280    7.9085 H         1 <0>         0.1410 
      54 H24       -0.2006   -5.2161    7.4780 H         1 <0>         0.0777 
      55 H25       -1.5858   -4.5579    6.5805 H         1 <0>         0.0771 
      56 H26       -2.4349   -3.5081    8.6475 H         1 <0>         0.0623 
      57 H27       -1.0418   -4.1446    9.5487 H         1 <0>         0.0572 
      58 H28       -2.2432   -5.2613    8.8649 H         1 <0>         0.0578 
@<TRIPOS>BOND
       1        1        2 1        
       2        1       31 1        
       3        1       32 1        
       4        1       33 1        
       5        2        3 1        
       6        2       34 1        
       7        2       35 1        
       8        3        4 1        
       9        3       36 1        
      10        3       37 1        
      11        4        5 1        
      12        4       38 1        
      13        4       39 1        
      14        5        6 1        
      15        6        7 1        
      16        6       40 1        
      17        6       41 1        
      18        7        8 1        
      19        7       42 1        
      20        7       43 1        
      21        8        9 am       
      22        8       44 1        
      23        9       10 2        
      24        9       11 1        
      25       11       12 1        
      26       11       45 1        
      27       11       46 1        
      28       12       13 1        
      29       13       14 2        
      30       13       15 1        
      31       15       19 2        
      32       15       16 1        
      33       16       17 2        
      34       16       47 1        
      35       17       18 1        
      36       17       48 1        
      37       18       19 1        
      38       19       20 1        
      39       20       21 am       
      40       20       49 1        
      41       21       22 2        
      42       21       23 1        
      43       23       28 ar       
      44       23       24 ar       
      45       24       25 ar       
      46       24       50 1        
      47       25       26 ar       
      48       25       51 1        
      49       26       27 ar       
      50       26       29 1        
      51       27       28 ar       
      52       27       52 1        
      53       28       53 1        
      54       29       30 1        
      55       29       54 1        
      56       29       55 1        
      57       30       56 1        
      58       30       57 1        
      59       30       58 1        

