#        1GCZ_R01_S0001_C0000_L00017_S0001_C0034_G0010_E0001.mol2
#        Tue Jun  6 10:01:27 2017
#        Descriptor:     12     2    28     8    11    15
#        Energy - RMSD - RMSD MassCentre:     -64.4281    999.9999    999.9999
#        Receptor:       1  Surface Point:     1  Conformer:     0
#        Ligand:        17  Surface Point:     1  Conformer:    34
#        BUDE Formal Charge: 0
#        ATOM Count: 52
#        Heavy ATOM Count: 29
@<TRIPOS>MOLECULE
ZINC61282001_1GCZ_R01_S0001_C0000_L00017_S0001_C0034_G0010_E0001
 52 53 0 0 0
SMALL
USER_CHARGES
@<TRIPOS>ATOM
       1 C1         2.8770    2.8452    6.8674 C.3       1 <0>        -0.1391 
       2 C2         3.6379    4.1679    6.8601 C.3       1 <0>        -0.1418 
       3 C3         3.0465    5.0936    7.8962 C.2       1 <0>         0.5169 
       4 O1         2.5635    6.1720    7.5546 O.2       1 <0>        -0.5335 
       5 N1         3.0479    4.7426    9.1791 N.am      1 <0>        -0.7285 
       6 C4         2.4721    5.6436   10.1877 C.3       1 <0>         0.1288 
       7 C5         0.9653    5.5654   10.1296 C.2       1 <0>         0.4630 
       8 O2         0.3528    5.1269   11.0573 O.2       1 <0>        -0.4988 
       9 O3         0.3096    5.9913    9.0292 O.3       1 <0>        -0.3175 
      10 C6        -1.1173    5.8976    9.0203 C.3       1 <0>         0.0731 
      11 C7        -1.6858    6.6631   10.2118 C.3       1 <0>        -0.1692 
      12 C8        -1.5260    4.4469    9.1137 C.2       1 <0>         0.5202 
      13 O4        -2.2715    4.0743   10.0183 O.2       1 <0>        -0.4963 
      14 N2        -1.0796    3.5716    8.2174 N.am      1 <0>        -0.6538 
      15 C9        -1.4617    2.2120    8.3037 C.ar      1 <0>         0.2101 
      16 C10       -1.9123    1.6590    9.5082 C.ar      1 <0>        -0.1321 
      17 C11       -2.2322    0.2970    9.5589 C.ar      1 <0>        -0.0675 
      18 C12       -2.1029   -0.5017    8.4154 C.ar      1 <0>        -0.1401 
      19 C13       -1.6861    0.0633    7.2043 C.ar      1 <0>        -0.0656 
      20 C14       -1.3491    1.4211    7.1541 C.ar      1 <0>        -0.1718 
      21 C15       -0.8546    2.0965    5.9335 C.2       1 <0>         0.5702 
      22 O5        -0.5675    3.2921    5.9661 O.2       1 <0>        -0.5422 
      23 N3        -0.7210    1.4102    4.8020 N.am      1 <0>        -0.7214 
      24 C16       -0.2299    2.0811    3.5897 C.3       1 <0>         0.2043 
      25 C17       -0.6275    1.2774    2.3748 C.2       1 <0>        -0.0464 
      26 C18        0.1729    0.4773    1.6572 C.2       1 <0>        -0.1782 
      27 C19       -0.7266   -0.0470    0.6053 C.2       1 <0>        -0.2183 
      28 C20       -1.9088    0.5134    0.8750 C.2       1 <0>        -0.0240 
      29 O6        -1.9568    1.3735    1.9696 O.3       1 <0>        -0.1712 
      30 H1         1.8326    3.0269    6.6224 H         1 <0>         0.0628 
      31 H2         3.3115    2.1734    6.1302 H         1 <0>         0.0628 
      32 H3         2.9451    2.3939    7.8551 H         1 <0>         0.0640 
      33 H4         3.5586    4.6271    5.8769 H         1 <0>         0.0966 
      34 H5         4.6850    3.9859    7.0928 H         1 <0>         0.0966 
      35 H6         3.4443    3.8573    9.4607 H         1 <0>         0.4131 
      36 H7         2.8123    5.3460   11.1773 H         1 <0>         0.1171 
      37 H8         2.7897    6.6646    9.9863 H         1 <0>         0.1171 
      38 H9        -1.5036    6.3238    8.0968 H         1 <0>         0.1185 
      39 H10       -1.2891    6.2439   11.1340 H         1 <0>         0.0777 
      40 H11       -1.4024    7.7107   10.1374 H         1 <0>         0.0803 
      41 H12       -2.7705    6.5792   10.2118 H         1 <0>         0.0842 
      42 H13       -0.4675    3.8776    7.4747 H         1 <0>         0.4245 
      43 H14       -2.0062    2.2760   10.3895 H         1 <0>         0.1486 
      44 H15       -2.5709   -0.1386   10.4873 H         1 <0>         0.1348 
      45 H16       -2.3316   -1.5561    8.4624 H         1 <0>         0.1332 
      46 H17       -1.6250   -0.5491    6.3168 H         1 <0>         0.1296 
      47 H18       -0.9571    0.4285    4.7764 H         1 <0>         0.4054 
      48 H19        0.8543    2.1605    3.6339 H         1 <0>         0.1035 
      49 H20       -0.6647    3.0762    3.5253 H         1 <0>         0.0890 
      50 H21        1.2204    0.2498    1.7886 H         1 <0>         0.1520 
      51 H22       -0.4868   -0.7321   -0.1943 H         1 <0>         0.1526 
      52 H23       -2.8066    0.3472    0.2982 H         1 <0>         0.2068 
@<TRIPOS>BOND
       1        1        2 1        
       2        1       30 1        
       3        1       31 1        
       4        1       32 1        
       5        2        3 1        
       6        2       33 1        
       7        2       34 1        
       8        3        4 2        
       9        3        5 am       
      10        5        6 1        
      11        5       35 1        
      12        6        7 1        
      13        6       36 1        
      14        6       37 1        
      15        7        8 2        
      16        7        9 1        
      17        9       10 1        
      18       10       11 1        
      19       10       12 1        
      20       10       38 1        
      21       11       39 1        
      22       11       40 1        
      23       11       41 1        
      24       12       13 2        
      25       12       14 am       
      26       14       15 1        
      27       14       42 1        
      28       15       20 ar       
      29       15       16 ar       
      30       16       17 ar       
      31       16       43 1        
      32       17       18 ar       
      33       17       44 1        
      34       18       19 ar       
      35       18       45 1        
      36       19       20 ar       
      37       19       46 1        
      38       20       21 1        
      39       21       22 2        
      40       21       23 am       
      41       23       24 1        
      42       23       47 1        
      43       24       25 1        
      44       24       48 1        
      45       24       49 1        
      46       25       29 1        
      47       25       26 2        
      48       26       27 1        
      49       26       50 1        
      50       27       28 2        
      51       27       51 1        
      52       28       29 1        
      53       28       52 1        

