#        1GCZ_R01_S0001_C0000_L00017_S0001_C0034_G0010_E0001.mol2
#        Tue Jun  6 14:19:23 2017
#        Descriptor:     23    19    27    11    10    15
#        Energy - RMSD - RMSD MassCentre:     -63.4198    999.9999    999.9999
#        Receptor:       1  Surface Point:     1  Conformer:     0
#        Ligand:        17  Surface Point:     1  Conformer:    34
#        BUDE Formal Charge: 0
#        ATOM Count: 52
#        Heavy ATOM Count: 29
@<TRIPOS>MOLECULE
ZINC61282001_1GCZ_R01_S0001_C0000_L00017_S0001_C0034_G0010_E0001
 52 53 0 0 0
SMALL
USER_CHARGES
@<TRIPOS>ATOM
       1 C1         2.3668    2.0802    4.1873 C.3       1 <0>        -0.1391 
       2 C2         1.6622    0.8582    3.6053 C.3       1 <0>        -0.1418 
       3 C3         0.5655    0.4157    4.5443 C.2       1 <0>         0.5169 
       4 O1         0.5975   -0.7085    5.0423 O.2       1 <0>        -0.5335 
       5 N1        -0.4357    1.2422    4.8329 N.am      1 <0>        -0.7285 
       6 C4        -1.5033    0.8116    5.7470 C.3       1 <0>         0.1288 
       7 C5        -0.9991    0.8661    7.1693 C.2       1 <0>         0.4630 
       8 O2        -1.4814    1.6357    7.9459 O.2       1 <0>        -0.4988 
       9 O3        -0.0033    0.0445    7.5640 O.3       1 <0>        -0.3175 
      10 C6         0.4407    0.1323    8.9204 C.3       1 <0>         0.0731 
      11 C7        -0.7393   -0.1019    9.8593 C.3       1 <0>        -0.1692 
      12 C8         1.0185    1.5046    9.1722 C.2       1 <0>         0.5202 
      13 O4         0.5693    2.2051   10.0779 O.2       1 <0>        -0.4963 
      14 N2         2.0135    1.9561    8.4140 N.am      1 <0>        -0.6538 
      15 C9         2.5558    3.2417    8.6486 C.ar      1 <0>         0.2101 
      16 C10        1.8267    4.2249    9.3280 C.ar      1 <0>        -0.1321 
      17 C11        2.3838    5.4985    9.4935 C.ar      1 <0>        -0.0675 
      18 C12        3.6574    5.7836    8.9848 C.ar      1 <0>        -0.1401 
      19 C13        4.3973    4.7870    8.3375 C.ar      1 <0>        -0.0656 
      20 C14        3.8366    3.5174    8.1552 C.ar      1 <0>        -0.1718 
      21 C15        4.5215    2.4152    7.4434 C.2       1 <0>         0.5702 
      22 O5         3.9626    1.3274    7.3119 O.2       1 <0>        -0.5422 
      23 N3         5.7410    2.6016    6.9464 N.am      1 <0>        -0.7214 
      24 C16        6.4214    1.5070    6.2395 C.3       1 <0>         0.2043 
      25 C17        7.9080    1.7704    6.2176 C.2       1 <0>        -0.0464 
      26 C18        8.6175    2.2217    5.1742 C.2       1 <0>        -0.1782 
      27 C19        9.9962    2.2941    5.7074 C.2       1 <0>        -0.2183 
      28 C20        9.8796    1.8887    6.9749 C.2       1 <0>        -0.0240 
      29 O6         8.6033    1.5277    7.4000 O.3       1 <0>        -0.1712 
      30 H1         2.8083    1.8205    5.1472 H         1 <0>         0.0628 
      31 H2         3.1481    2.4070    3.5045 H         1 <0>         0.0628 
      32 H3         1.6452    2.8827    4.3246 H         1 <0>         0.0640 
      33 H4         2.3800    0.0500    3.4807 H         1 <0>         0.0966 
      34 H5         1.2309    1.1132    2.6395 H         1 <0>         0.0966 
      35 H6        -0.4630    2.1656    4.4245 H         1 <0>         0.4131 
      36 H7        -2.3608    1.4726    5.6413 H         1 <0>         0.1171 
      37 H8        -1.7985   -0.2076    5.5063 H         1 <0>         0.1171 
      38 H9         1.2047   -0.6209    9.1021 H         1 <0>         0.1185 
      39 H10       -1.5076    0.6443    9.6681 H         1 <0>         0.0777 
      40 H11       -1.1470   -1.0956    9.6870 H         1 <0>         0.0803 
      41 H12       -0.4030   -0.0209   10.8907 H         1 <0>         0.0842 
      42 H13        2.3823    1.3809    7.6703 H         1 <0>         0.4245 
      43 H14        0.8429    4.0037    9.7147 H         1 <0>         0.1486 
      44 H15        1.8229    6.2648   10.0079 H         1 <0>         0.1348 
      45 H16        4.0765    6.7726    9.0968 H         1 <0>         0.1332 
      46 H17        5.3941    5.0016    7.9812 H         1 <0>         0.1296 
      47 H18        6.1991    3.4953    7.0551 H         1 <0>         0.4054 
      48 H19        6.0478    1.4474    5.2194 H         1 <0>         0.1035 
      49 H20        6.2263    0.5680    6.7531 H         1 <0>         0.0890 
      50 H21        8.2927    2.4788    4.1768 H         1 <0>         0.1520 
      51 H22       10.8924    2.6093    5.1939 H         1 <0>         0.1526 
      52 H23       10.7037    1.8183    7.6693 H         1 <0>         0.2068 
@<TRIPOS>BOND
       1        1        2 1        
       2        1       30 1        
       3        1       31 1        
       4        1       32 1        
       5        2        3 1        
       6        2       33 1        
       7        2       34 1        
       8        3        4 2        
       9        3        5 am       
      10        5        6 1        
      11        5       35 1        
      12        6        7 1        
      13        6       36 1        
      14        6       37 1        
      15        7        8 2        
      16        7        9 1        
      17        9       10 1        
      18       10       11 1        
      19       10       12 1        
      20       10       38 1        
      21       11       39 1        
      22       11       40 1        
      23       11       41 1        
      24       12       13 2        
      25       12       14 am       
      26       14       15 1        
      27       14       42 1        
      28       15       20 ar       
      29       15       16 ar       
      30       16       17 ar       
      31       16       43 1        
      32       17       18 ar       
      33       17       44 1        
      34       18       19 ar       
      35       18       45 1        
      36       19       20 ar       
      37       19       46 1        
      38       20       21 1        
      39       21       22 2        
      40       21       23 am       
      41       23       24 1        
      42       23       47 1        
      43       24       25 1        
      44       24       48 1        
      45       24       49 1        
      46       25       29 1        
      47       25       26 2        
      48       26       27 1        
      49       26       50 1        
      50       27       28 2        
      51       27       51 1        
      52       28       29 1        
      53       28       52 1        

