#        1GCZ_R01_S0001_C0000_L00017_S0001_C0035_G0010_E0001.mol2
#        Tue Jun  6 10:01:28 2017
#        Descriptor:      7    15    12     9     9    14
#        Energy - RMSD - RMSD MassCentre:     -70.0782    999.9999    999.9999
#        Receptor:       1  Surface Point:     1  Conformer:     0
#        Ligand:        17  Surface Point:     1  Conformer:    35
#        BUDE Formal Charge: 0
#        ATOM Count: 52
#        Heavy ATOM Count: 29
@<TRIPOS>MOLECULE
ZINC61282001_1GCZ_R01_S0001_C0000_L00017_S0001_C0035_G0010_E0001
 52 53 0 0 0
SMALL
USER_CHARGES
@<TRIPOS>ATOM
       1 C1        -0.0858   -2.3583    7.6727 C.3       1 <0>        -0.1391 
       2 C2        -1.0512   -1.6296    6.7421 C.3       1 <0>        -0.1418 
       3 C3        -1.3851   -0.2768    7.3240 C.2       1 <0>         0.5169 
       4 O1        -0.8902    0.0723    8.3945 O.2       1 <0>        -0.5335 
       5 N1        -2.2150    0.5378    6.6785 N.am      1 <0>        -0.7285 
       6 C4        -2.8064    0.1205    5.3991 C.3       1 <0>         0.1288 
       7 C5        -1.7740    0.2443    4.3042 C.2       1 <0>         0.4630 
       8 O2        -1.3782   -0.7329    3.7418 O.2       1 <0>        -0.4988 
       9 O3        -1.2981    1.4599    3.9602 O.3       1 <0>        -0.3175 
      10 C6        -0.3217    1.5274    2.9177 C.3       1 <0>         0.0731 
      11 C7        -0.8821    0.8850    1.6520 C.3       1 <0>        -0.1692 
      12 C8         0.9236    0.7889    3.3470 C.2       1 <0>         0.5202 
      13 O4         1.3654   -0.1272    2.6554 O.2       1 <0>        -0.4963 
      14 N2         1.5429    1.1292    4.4737 N.am      1 <0>        -0.6538 
      15 C9         2.7097    0.4381    4.8773 C.ar      1 <0>         0.2101 
      16 C10        2.9929   -0.8482    4.4030 C.ar      1 <0>        -0.1321 
      17 C11        4.1334   -1.5138    4.8682 C.ar      1 <0>        -0.0675 
      18 C12        4.9809   -0.8971    5.7974 C.ar      1 <0>        -0.1401 
      19 C13        4.7131    0.4032    6.2416 C.ar      1 <0>        -0.0656 
      20 C14        3.5645    1.0651    5.7917 C.ar      1 <0>        -0.1718 
      21 C15        3.1729    2.4202    6.2399 C.2       1 <0>         0.5702 
      22 O5         2.1428    2.9362    5.8092 O.2       1 <0>        -0.5422 
      23 N3         3.9352    3.0792    7.1080 N.am      1 <0>        -0.7214 
      24 C16        3.5463    4.4251    7.5531 C.3       1 <0>         0.2043 
      25 C17        2.3905    4.3203    8.5191 C.2       1 <0>        -0.0464 
      26 C18        1.1041    4.5785    8.2465 C.2       1 <0>        -0.1782 
      27 C19        0.4249    4.3140    9.5347 C.2       1 <0>        -0.2183 
      28 C20        1.4096    3.9330   10.3529 C.2       1 <0>        -0.0240 
      29 O6         2.6940    3.9075    9.8144 O.3       1 <0>        -0.1712 
      30 H1        -0.5558   -2.4987    8.6439 H         1 <0>         0.0628 
      31 H2         0.1651   -3.3275    7.2469 H         1 <0>         0.0628 
      32 H3         0.8201   -1.7671    7.7896 H         1 <0>         0.0640 
      33 H4        -1.9632   -2.2130    6.6357 H         1 <0>         0.0966 
      34 H5        -0.5870   -1.4996    5.7667 H         1 <0>         0.0966 
      35 H6        -2.4390    1.4428    7.0667 H         1 <0>         0.4131 
      36 H7        -3.1354   -0.9140    5.4712 H         1 <0>         0.1171 
      37 H8        -3.6578    0.7571    5.1677 H         1 <0>         0.1171 
      38 H9        -0.0746    2.5681    2.7182 H         1 <0>         0.1185 
      39 H10       -1.1402   -0.1520    1.8562 H         1 <0>         0.0777 
      40 H11       -1.7716    1.4252    1.3353 H         1 <0>         0.0803 
      41 H12       -0.1332    0.9244    0.8639 H         1 <0>         0.0842 
      42 H13        1.1801    1.8814    5.0415 H         1 <0>         0.4245 
      43 H14        2.3349   -1.3232    3.6905 H         1 <0>         0.1486 
      44 H15        4.3527   -2.5102    4.5142 H         1 <0>         0.1348 
      45 H16        5.8493   -1.4205    6.1693 H         1 <0>         0.1332 
      46 H17        5.3907    0.8882    6.9287 H         1 <0>         0.1296 
      47 H18        4.7809    2.6545    7.4609 H         1 <0>         0.4054 
      48 H19        3.2475    5.0190    6.6919 H         1 <0>         0.1035 
      49 H20        4.3906    4.9010    8.0472 H         1 <0>         0.0890 
      50 H21        0.6443    4.9012    7.3242 H         1 <0>         0.1520 
      51 H22       -0.6271    4.4013    9.7622 H         1 <0>         0.1526 
      52 H23        1.2688    3.6591   11.3881 H         1 <0>         0.2068 
@<TRIPOS>BOND
       1        1        2 1        
       2        1       30 1        
       3        1       31 1        
       4        1       32 1        
       5        2        3 1        
       6        2       33 1        
       7        2       34 1        
       8        3        4 2        
       9        3        5 am       
      10        5        6 1        
      11        5       35 1        
      12        6        7 1        
      13        6       36 1        
      14        6       37 1        
      15        7        8 2        
      16        7        9 1        
      17        9       10 1        
      18       10       11 1        
      19       10       12 1        
      20       10       38 1        
      21       11       39 1        
      22       11       40 1        
      23       11       41 1        
      24       12       13 2        
      25       12       14 am       
      26       14       15 1        
      27       14       42 1        
      28       15       20 ar       
      29       15       16 ar       
      30       16       17 ar       
      31       16       43 1        
      32       17       18 ar       
      33       17       44 1        
      34       18       19 ar       
      35       18       45 1        
      36       19       20 ar       
      37       19       46 1        
      38       20       21 1        
      39       21       22 2        
      40       21       23 am       
      41       23       24 1        
      42       23       47 1        
      43       24       25 1        
      44       24       48 1        
      45       24       49 1        
      46       25       29 1        
      47       25       26 2        
      48       26       27 1        
      49       26       50 1        
      50       27       28 2        
      51       27       51 1        
      52       28       29 1        
      53       28       52 1        

