#        1GCZ_R01_S0001_C0000_L00017_S0001_C0035_G0010_E0001.mol2
#        Tue Jun  6 14:19:25 2017
#        Descriptor:      7    14    10    10     9    14
#        Energy - RMSD - RMSD MassCentre:     -69.9933    999.9999    999.9999
#        Receptor:       1  Surface Point:     1  Conformer:     0
#        Ligand:        17  Surface Point:     1  Conformer:    35
#        BUDE Formal Charge: 0
#        ATOM Count: 52
#        Heavy ATOM Count: 29
@<TRIPOS>MOLECULE
ZINC61282001_1GCZ_R01_S0001_C0000_L00017_S0001_C0035_G0010_E0001
 52 53 0 0 0
SMALL
USER_CHARGES
@<TRIPOS>ATOM
       1 C1        -0.2256   -1.4630    8.0580 C.3       1 <0>        -0.1391 
       2 C2        -0.8525   -0.6238    6.9482 C.3       1 <0>        -0.1418 
       3 C3        -0.7176    0.8411    7.2888 C.2       1 <0>         0.5169 
       4 O1        -0.1653    1.1821    8.3336 O.2       1 <0>        -0.5335 
       5 N1        -1.1964    1.7632    6.4585 N.am      1 <0>        -0.7285 
       6 C4        -1.8565    1.3555    5.2100 C.3       1 <0>         0.1288 
       7 C5        -0.8121    0.9377    4.2028 C.2       1 <0>         0.4630 
       8 O2        -0.7602   -0.1965    3.8302 O.2       1 <0>        -0.4988 
       9 O3         0.0634    1.8462    3.7225 O.3       1 <0>        -0.3175 
      10 C6         1.0343    1.4038    2.7704 C.3       1 <0>         0.0731 
      11 C7         0.3254    0.7795    1.5719 C.3       1 <0>        -0.1692 
      12 C8         1.9356    0.3763    3.4124 C.2       1 <0>         0.5202 
      13 O4         2.0556   -0.7388    2.9074 O.2       1 <0>        -0.4963 
      14 N2         2.6000    0.6771    4.5245 N.am      1 <0>        -0.6538 
      15 C9         3.4447   -0.2847    5.1273 C.ar      1 <0>         0.2101 
      16 C10        3.2819   -1.6526    4.8782 C.ar      1 <0>        -0.1321 
      17 C11        4.1089   -2.5714    5.5355 C.ar      1 <0>        -0.0675 
      18 C12        5.0885   -2.1245    6.4314 C.ar      1 <0>        -0.1401 
      19 C13        5.2715   -0.7539    6.6500 C.ar      1 <0>        -0.0656 
      20 C14        4.4351    0.1667    6.0077 C.ar      1 <0>        -0.1718 
      21 C15        4.5208    1.6302    6.2113 C.2       1 <0>         0.5702 
      22 O5         3.7448    2.3794    5.6202 O.2       1 <0>        -0.5422 
      23 N3         5.4368    2.1344    7.0333 N.am      1 <0>        -0.7214 
      24 C16        5.5218    3.5879    7.2355 C.3       1 <0>         0.2043 
      25 C17        4.3720    4.0427    8.1022 C.2       1 <0>        -0.0464 
      26 C18        3.2621    4.6656    7.6833 C.2       1 <0>        -0.1782 
      27 C19        2.4948    4.8681    8.9327 C.2       1 <0>        -0.2183 
      28 C20        3.2629    4.3255    9.8813 C.2       1 <0>        -0.0240 
      29 O6         4.4757    3.7801    9.4663 O.3       1 <0>        -0.1712 
      30 H1        -0.7442   -1.2698    8.9948 H         1 <0>         0.0628 
      31 H2        -0.3110   -2.5179    7.8063 H         1 <0>         0.0628 
      32 H3         0.8245   -1.1981    8.1629 H         1 <0>         0.0640 
      33 H4        -1.9060   -0.8776    6.8519 H         1 <0>         0.0966 
      34 H5        -0.3427   -0.8255    6.0084 H         1 <0>         0.0966 
      35 H6        -1.1068    2.7433    6.6853 H         1 <0>         0.4131 
      36 H7        -2.5236    0.5192    5.4080 H         1 <0>         0.1171 
      37 H8        -2.4293    2.1908    4.8124 H         1 <0>         0.1171 
      38 H9         1.6305    2.2515    2.4389 H         1 <0>         0.1185 
      39 H10       -0.2800   -0.0603    1.9066 H         1 <0>         0.0777 
      40 H11       -0.3137    1.5236    1.1016 H         1 <0>         0.0803 
      41 H12        1.0655    0.4307    0.8549 H         1 <0>         0.0842 
      42 H13        2.5013    1.5927    4.9392 H         1 <0>         0.4245 
      43 H14        2.5224   -1.9946    4.1908 H         1 <0>         0.1486 
      44 H15        3.9823   -3.6287    5.3557 H         1 <0>         0.1348 
      45 H16        5.7120   -2.8365    6.9517 H         1 <0>         0.1332 
      46 H17        6.0536   -0.4136    7.3126 H         1 <0>         0.1296 
      47 H18        6.0735    1.5182    7.5182 H         1 <0>         0.4054 
      48 H19        5.4718    4.0910    6.2721 H         1 <0>         0.1035 
      49 H20        6.4631    3.8310    7.7238 H         1 <0>         0.0890 
      50 H21        2.9695    4.9608    6.6866 H         1 <0>         0.1520 
      51 H22        1.5308    5.3398    9.0523 H         1 <0>         0.1526 
      52 H23        3.0054    4.2958   10.9297 H         1 <0>         0.2068 
@<TRIPOS>BOND
       1        1        2 1        
       2        1       30 1        
       3        1       31 1        
       4        1       32 1        
       5        2        3 1        
       6        2       33 1        
       7        2       34 1        
       8        3        4 2        
       9        3        5 am       
      10        5        6 1        
      11        5       35 1        
      12        6        7 1        
      13        6       36 1        
      14        6       37 1        
      15        7        8 2        
      16        7        9 1        
      17        9       10 1        
      18       10       11 1        
      19       10       12 1        
      20       10       38 1        
      21       11       39 1        
      22       11       40 1        
      23       11       41 1        
      24       12       13 2        
      25       12       14 am       
      26       14       15 1        
      27       14       42 1        
      28       15       20 ar       
      29       15       16 ar       
      30       16       17 ar       
      31       16       43 1        
      32       17       18 ar       
      33       17       44 1        
      34       18       19 ar       
      35       18       45 1        
      36       19       20 ar       
      37       19       46 1        
      38       20       21 1        
      39       21       22 2        
      40       21       23 am       
      41       23       24 1        
      42       23       47 1        
      43       24       25 1        
      44       24       48 1        
      45       24       49 1        
      46       25       29 1        
      47       25       26 2        
      48       26       27 1        
      49       26       50 1        
      50       27       28 2        
      51       27       51 1        
      52       28       29 1        
      53       28       52 1        

