#        1GCZ_R01_S0001_C0000_L00017_S0001_C0036_G0010_E0001.mol2
#        Tue Jun  6 10:01:29 2017
#        Descriptor:     11     4    16    12     9    13
#        Energy - RMSD - RMSD MassCentre:     -72.6163    999.9999    999.9999
#        Receptor:       1  Surface Point:     1  Conformer:     0
#        Ligand:        17  Surface Point:     1  Conformer:    36
#        BUDE Formal Charge: 0
#        ATOM Count: 52
#        Heavy ATOM Count: 29
@<TRIPOS>MOLECULE
ZINC61282001_1GCZ_R01_S0001_C0000_L00017_S0001_C0036_G0010_E0001
 52 53 0 0 0
SMALL
USER_CHARGES
@<TRIPOS>ATOM
       1 C1         9.9413    2.3409    5.8049 C.3       1 <0>        -0.1391 
       2 C2        10.8071    1.1009    5.6017 C.3       1 <0>        -0.1418 
       3 C3         9.9317   -0.1296    5.6078 C.2       1 <0>         0.5169 
       4 O1         9.8839   -0.8562    4.6166 O.2       1 <0>        -0.5335 
       5 N1         9.2118   -0.4276    6.6857 N.am      1 <0>        -0.7285 
       6 C4         8.3598   -1.6254    6.6916 C.3       1 <0>         0.1288 
       7 C5         7.1110   -1.3576    5.8861 C.2       1 <0>         0.4630 
       8 O2         6.9085   -1.9641    4.8766 O.2       1 <0>        -0.4988 
       9 O3         6.2225   -0.4322    6.3067 O.3       1 <0>        -0.3175 
      10 C6         5.0548   -0.2133    5.5110 C.3       1 <0>         0.0731 
      11 C7         5.4677    0.2416    4.1141 C.3       1 <0>        -0.1692 
      12 C8         4.2009    0.8530    6.1545 C.2       1 <0>         0.5202 
      13 O4         4.5820    1.4094    7.1831 O.2       1 <0>        -0.4963 
      14 N2         3.0359    1.1906    5.6089 N.am      1 <0>        -0.6538 
      15 C9         2.2346    2.1894    6.2108 C.ar      1 <0>         0.2101 
      16 C10        2.7758    3.1029    7.1231 C.ar      1 <0>        -0.1321 
      17 C11        1.9350    4.0424    7.7317 C.ar      1 <0>        -0.0675 
      18 C12        0.5676    4.0668    7.4289 C.ar      1 <0>        -0.1401 
      19 C13        0.0375    3.1747    6.4893 C.ar      1 <0>        -0.0656 
      20 C14        0.8720    2.2229    5.8916 C.ar      1 <0>        -0.1718 
      21 C15        0.3952    1.2096    4.9239 C.2       1 <0>         0.5702 
      22 O5         1.1849    0.3965    4.4462 O.2       1 <0>        -0.5422 
      23 N3        -0.8869    1.1787    4.5715 N.am      1 <0>        -0.7214 
      24 C16       -1.3605    0.1723    3.6104 C.3       1 <0>         0.2043 
      25 C17       -0.9010    0.5480    2.2220 C.2       1 <0>        -0.0464 
      26 C18        0.1044   -0.0172    1.5400 C.2       1 <0>        -0.1782 
      27 C19        0.1083    0.7283    0.2615 C.2       1 <0>        -0.2183 
      28 C20       -0.8960    1.6002    0.3868 C.2       1 <0>        -0.0240 
      29 O6        -1.5973    1.5758    1.5901 O.3       1 <0>        -0.1712 
      30 H1         9.4335    2.2746    6.7649 H         1 <0>         0.0628 
      31 H2        10.5703    3.2285    5.7873 H         1 <0>         0.0628 
      32 H3         9.2038    2.4022    5.0074 H         1 <0>         0.0640 
      33 H4        11.5359    1.0306    6.4065 H         1 <0>         0.0966 
      34 H5        11.3251    1.1719    4.6475 H         1 <0>         0.0966 
      35 H6         9.2503    0.1683    7.5002 H         1 <0>         0.4131 
      36 H7         8.9024   -2.4595    6.2517 H         1 <0>         0.1171 
      37 H8         8.0847   -1.8706    7.7153 H         1 <0>         0.1171 
      38 H9         4.4858   -1.1379    5.4386 H         1 <0>         0.1185 
      39 H10        6.0472    1.1594    4.1888 H         1 <0>         0.0777 
      40 H11        6.0719   -0.5323    3.6453 H         1 <0>         0.0803 
      41 H12        4.5782    0.4213    3.5142 H         1 <0>         0.0842 
      42 H13        2.7230    0.7336    4.7644 H         1 <0>         0.4245 
      43 H14        3.8296    3.0785    7.3584 H         1 <0>         0.1486 
      44 H15        2.3439    4.7437    8.4440 H         1 <0>         0.1348 
      45 H16       -0.0822    4.7798    7.9147 H         1 <0>         0.1332 
      46 H17       -1.0101    3.2233    6.2314 H         1 <0>         0.1296 
      47 H18       -1.5345    1.8469    4.9644 H         1 <0>         0.4054 
      48 H19       -2.4474    0.1317    3.6349 H         1 <0>         0.1035 
      49 H20       -0.9545   -0.8014    3.8764 H         1 <0>         0.0890 
      50 H21        0.7672   -0.8209    1.8251 H         1 <0>         0.1520 
      51 H22        0.7665    0.5953   -0.5843 H         1 <0>         0.1526 
      52 H23       -1.1813    2.3129   -0.3727 H         1 <0>         0.2068 
@<TRIPOS>BOND
       1        1        2 1        
       2        1       30 1        
       3        1       31 1        
       4        1       32 1        
       5        2        3 1        
       6        2       33 1        
       7        2       34 1        
       8        3        4 2        
       9        3        5 am       
      10        5        6 1        
      11        5       35 1        
      12        6        7 1        
      13        6       36 1        
      14        6       37 1        
      15        7        8 2        
      16        7        9 1        
      17        9       10 1        
      18       10       11 1        
      19       10       12 1        
      20       10       38 1        
      21       11       39 1        
      22       11       40 1        
      23       11       41 1        
      24       12       13 2        
      25       12       14 am       
      26       14       15 1        
      27       14       42 1        
      28       15       20 ar       
      29       15       16 ar       
      30       16       17 ar       
      31       16       43 1        
      32       17       18 ar       
      33       17       44 1        
      34       18       19 ar       
      35       18       45 1        
      36       19       20 ar       
      37       19       46 1        
      38       20       21 1        
      39       21       22 2        
      40       21       23 am       
      41       23       24 1        
      42       23       47 1        
      43       24       25 1        
      44       24       48 1        
      45       24       49 1        
      46       25       29 1        
      47       25       26 2        
      48       26       27 1        
      49       26       50 1        
      50       27       28 2        
      51       27       51 1        
      52       28       29 1        
      53       28       52 1        

