#        1GCZ_R01_S0001_C0000_L00017_S0001_C0036_G0010_E0001.mol2
#        Tue Jun  6 14:19:27 2017
#        Descriptor:     22    16    21    13     7    13
#        Energy - RMSD - RMSD MassCentre:     -59.1816    999.9999    999.9999
#        Receptor:       1  Surface Point:     1  Conformer:     0
#        Ligand:        17  Surface Point:     1  Conformer:    36
#        BUDE Formal Charge: 0
#        ATOM Count: 52
#        Heavy ATOM Count: 29
@<TRIPOS>MOLECULE
ZINC61282001_1GCZ_R01_S0001_C0000_L00017_S0001_C0036_G0010_E0001
 52 53 0 0 0
SMALL
USER_CHARGES
@<TRIPOS>ATOM
       1 C1        -0.3603   -1.1518    7.9982 C.3       1 <0>        -0.1391 
       2 C2        -1.5105   -0.7782    7.0674 C.3       1 <0>        -0.1418 
       3 C3        -0.9557   -0.1583    5.8071 C.2       1 <0>         0.5169 
       4 O1        -1.1672   -0.6861    4.7165 O.2       1 <0>        -0.5335 
       5 N1        -0.2379    0.9593    5.8766 N.am      1 <0>        -0.7285 
       6 C4         0.3020    1.5628    4.6498 C.3       1 <0>         0.1288 
       7 C5         1.5050    0.7748    4.1896 C.2       1 <0>         0.4630 
       8 O2         1.4702    0.1800    3.1538 O.2       1 <0>        -0.4988 
       9 O3         2.6207    0.7421    4.9489 O.3       1 <0>        -0.3175 
      10 C6         3.7346   -0.0173    4.4720 C.3       1 <0>         0.0731 
      11 C7         3.3237   -1.4781    4.3103 C.3       1 <0>        -0.1692 
      12 C8         4.8695    0.0784    5.4635 C.2       1 <0>         0.5202 
      13 O4         4.7212    0.7069    6.5103 O.2       1 <0>        -0.4963 
      14 N2         6.0302   -0.5169    5.2046 N.am      1 <0>        -0.6538 
      15 C9         7.0946   -0.4280    6.1325 C.ar      1 <0>         0.2101 
      16 C10        6.8664   -0.0767    7.4683 C.ar      1 <0>        -0.1321 
      17 C11        7.9556    0.0476    8.3391 C.ar      1 <0>        -0.0675 
      18 C12        9.2584   -0.1782    7.8770 C.ar      1 <0>        -0.1401 
      19 C13        9.4786   -0.5640    6.5494 C.ar      1 <0>        -0.0656 
      20 C14        8.3936   -0.6727    5.6717 C.ar      1 <0>        -0.1718 
      21 C15        8.5310   -1.0281    4.2414 C.2       1 <0>         0.5702 
      22 O5         7.5326   -1.0950    3.5261 O.2       1 <0>        -0.5422 
      23 N3         9.7340   -1.2748    3.7306 N.am      1 <0>        -0.7214 
      24 C16        9.8705   -1.6276    2.3101 C.3       1 <0>         0.2043 
      25 C17        9.3965   -3.0453    2.0968 C.2       1 <0>        -0.0464 
      26 C18        8.2309   -3.4175    1.5505 C.2       1 <0>        -0.1782 
      27 C19        8.2952   -4.8956    1.5883 C.2       1 <0>        -0.2183 
      28 C20        9.4850   -5.1586    2.1357 C.2       1 <0>        -0.0240 
      29 O6        10.2606   -4.0606    2.5005 O.3       1 <0>        -0.1712 
      30 H1         0.1973   -0.2557    8.2623 H         1 <0>         0.0628 
      31 H2        -0.7592   -1.6106    8.9004 H         1 <0>         0.0628 
      32 H3         0.2995   -1.8548    7.4942 H         1 <0>         0.0640 
      33 H4        -2.1634   -0.0642    7.5650 H         1 <0>         0.0966 
      34 H5        -2.0764   -1.6718    6.8124 H         1 <0>         0.0966 
      35 H6        -0.0636    1.3936    6.7716 H         1 <0>         0.4131 
      36 H7        -0.4591    1.5486    3.8725 H         1 <0>         0.1171 
      37 H8         0.5974    2.5906    4.8500 H         1 <0>         0.1171 
      38 H9         4.0589    0.3773    3.5113 H         1 <0>         0.1185 
      39 H10        2.9879   -1.8680    5.2689 H         1 <0>         0.0777 
      40 H11        2.5149   -1.5485    3.5860 H         1 <0>         0.0803 
      41 H12        4.1758   -2.0573    3.9609 H         1 <0>         0.0842 
      42 H13        6.1520   -1.0328    4.3449 H         1 <0>         0.4245 
      43 H14        5.8612    0.1017    7.8207 H         1 <0>         0.1486 
      44 H15        7.7878    0.3281    9.3685 H         1 <0>         0.1348 
      45 H16       10.0983   -0.0622    8.5461 H         1 <0>         0.1332 
      46 H17       10.4817   -0.7739    6.2087 H         1 <0>         0.1296 
      47 H18       10.5531   -1.2196    4.3189 H         1 <0>         0.4054 
      48 H19       10.9145   -1.5453    2.0154 H         1 <0>         0.1035 
      49 H20        9.2688   -0.9492    1.7092 H         1 <0>         0.0890 
      50 H21        7.4229   -2.8122    1.1669 H         1 <0>         0.1520 
      51 H22        7.5543   -5.6028    1.2458 H         1 <0>         0.1526 
      52 H23        9.8656   -6.1531    2.3153 H         1 <0>         0.2068 
@<TRIPOS>BOND
       1        1        2 1        
       2        1       30 1        
       3        1       31 1        
       4        1       32 1        
       5        2        3 1        
       6        2       33 1        
       7        2       34 1        
       8        3        4 2        
       9        3        5 am       
      10        5        6 1        
      11        5       35 1        
      12        6        7 1        
      13        6       36 1        
      14        6       37 1        
      15        7        8 2        
      16        7        9 1        
      17        9       10 1        
      18       10       11 1        
      19       10       12 1        
      20       10       38 1        
      21       11       39 1        
      22       11       40 1        
      23       11       41 1        
      24       12       13 2        
      25       12       14 am       
      26       14       15 1        
      27       14       42 1        
      28       15       20 ar       
      29       15       16 ar       
      30       16       17 ar       
      31       16       43 1        
      32       17       18 ar       
      33       17       44 1        
      34       18       19 ar       
      35       18       45 1        
      36       19       20 ar       
      37       19       46 1        
      38       20       21 1        
      39       21       22 2        
      40       21       23 am       
      41       23       24 1        
      42       23       47 1        
      43       24       25 1        
      44       24       48 1        
      45       24       49 1        
      46       25       29 1        
      47       25       26 2        
      48       26       27 1        
      49       26       50 1        
      50       27       28 2        
      51       27       51 1        
      52       28       29 1        
      53       28       52 1        

