#        1GCZ_R01_S0001_C0000_L00017_S0001_C0037_G0010_E0001.mol2
#        Tue Jun  6 10:01:30 2017
#        Descriptor:     35    13    29    10     8    14
#        Energy - RMSD - RMSD MassCentre:     -70.2380    999.9999    999.9999
#        Receptor:       1  Surface Point:     1  Conformer:     0
#        Ligand:        17  Surface Point:     1  Conformer:    37
#        BUDE Formal Charge: 0
#        ATOM Count: 52
#        Heavy ATOM Count: 29
@<TRIPOS>MOLECULE
ZINC61282001_1GCZ_R01_S0001_C0000_L00017_S0001_C0037_G0010_E0001
 52 53 0 0 0
SMALL
USER_CHARGES
@<TRIPOS>ATOM
       1 C1        -0.0427   -1.5083    7.9483 C.3       1 <0>        -0.1391 
       2 C2         0.5095   -1.8984    9.3164 C.3       1 <0>        -0.1418 
       3 C3         1.9841   -2.1999    9.1956 C.2       1 <0>         0.5169 
       4 O1         2.8024   -1.5361    9.8304 O.2       1 <0>        -0.5335 
       5 N1         2.3986   -3.1837    8.4024 N.am      1 <0>        -0.7285 
       6 C4         3.8341   -3.4771    8.2849 C.3       1 <0>         0.1288 
       7 C5         4.4882   -2.4405    7.4030 C.2       1 <0>         0.4630 
       8 O2         5.3008   -1.6928    7.8600 O.2       1 <0>        -0.4988 
       9 O3         4.1553   -2.3587    6.0973 O.3       1 <0>        -0.3175 
      10 C6         4.8012   -1.3614    5.3017 C.3       1 <0>         0.0731 
      11 C7         6.3134   -1.5531    5.3729 C.3       1 <0>        -0.1692 
      12 C8         4.4432    0.0089    5.8256 C.2       1 <0>         0.5202 
      13 O4         5.3311    0.7924    6.1579 O.2       1 <0>        -0.4963 
      14 N2         3.1669    0.3686    5.9279 N.am      1 <0>        -0.6538 
      15 C9         2.8298    1.6522    6.4187 C.ar      1 <0>         0.2101 
      16 C10        3.7243    2.3869    7.2060 C.ar      1 <0>        -0.1321 
      17 C11        3.3291    3.6313    7.7113 C.ar      1 <0>        -0.0675 
      18 C12        2.0523    4.1342    7.4302 C.ar      1 <0>        -0.1401 
      19 C13        1.1744    3.4122    6.6129 C.ar      1 <0>        -0.0656 
      20 C14        1.5599    2.1599    6.1201 C.ar      1 <0>        -0.1718 
      21 C15        0.6847    1.3033    5.2888 C.2       1 <0>         0.5702 
      22 O5         1.0873    0.2083    4.8992 O.2       1 <0>        -0.5422 
      23 N3        -0.5363    1.7182    4.9636 N.am      1 <0>        -0.7214 
      24 C16       -1.4055    0.8675    4.1379 C.3       1 <0>         0.2043 
      25 C17       -0.9237    0.8956    2.7072 C.2       1 <0>        -0.0464 
      26 C18        0.1332    1.5743    2.2403 C.2       1 <0>        -0.1782 
      27 C19        0.1390    1.2424    0.7979 C.2       1 <0>        -0.2183 
      28 C20       -0.9004    0.4170    0.6468 C.2       1 <0>        -0.0240 
      29 O6        -1.6450    0.1351    1.7897 O.3       1 <0>        -0.1712 
      30 H1         0.0922   -2.3354    7.2542 H         1 <0>         0.0628 
      31 H2        -1.1023   -1.2783    8.0377 H         1 <0>         0.0628 
      32 H3         0.4893   -0.6339    7.5791 H         1 <0>         0.0640 
      33 H4        -0.0119   -2.7812    9.6803 H         1 <0>         0.0966 
      34 H5         0.3639   -1.0768   10.0145 H         1 <0>         0.0966 
      35 H6         1.7277   -3.7293    7.8807 H         1 <0>         0.4131 
      36 H7         4.2918   -3.4537    9.2717 H         1 <0>         0.1171 
      37 H8         3.9686   -4.4633    7.8455 H         1 <0>         0.1171 
      38 H9         4.4718   -1.4514    4.2686 H         1 <0>         0.1185 
      39 H10        6.6398   -1.4753    6.4079 H         1 <0>         0.0777 
      40 H11        6.5725   -2.5351    4.9831 H         1 <0>         0.0803 
      41 H12        6.8041   -0.7852    4.7786 H         1 <0>         0.0842 
      42 H13        2.4378   -0.2747    5.6551 H         1 <0>         0.4245 
      43 H14        4.7063    1.9945    7.4253 H         1 <0>         0.1486 
      44 H15        4.0104    4.1991    8.3276 H         1 <0>         0.1348 
      45 H16        1.7429    5.0854    7.8374 H         1 <0>         0.1332 
      46 H17        0.2057    3.8223    6.3682 H         1 <0>         0.1296 
      47 H18       -0.8658    2.6176    5.2841 H         1 <0>         0.4054 
      48 H19       -2.4268    1.2397    4.1849 H         1 <0>         0.1035 
      49 H20       -1.3736   -0.1536    4.5120 H         1 <0>         0.0890 
      50 H21        0.8292    2.2143    2.7621 H         1 <0>         0.1520 
      51 H22        0.8288    1.5824    0.0398 H         1 <0>         0.1526 
      52 H23       -1.1940   -0.0259   -0.2934 H         1 <0>         0.2068 
@<TRIPOS>BOND
       1        1        2 1        
       2        1       30 1        
       3        1       31 1        
       4        1       32 1        
       5        2        3 1        
       6        2       33 1        
       7        2       34 1        
       8        3        4 2        
       9        3        5 am       
      10        5        6 1        
      11        5       35 1        
      12        6        7 1        
      13        6       36 1        
      14        6       37 1        
      15        7        8 2        
      16        7        9 1        
      17        9       10 1        
      18       10       11 1        
      19       10       12 1        
      20       10       38 1        
      21       11       39 1        
      22       11       40 1        
      23       11       41 1        
      24       12       13 2        
      25       12       14 am       
      26       14       15 1        
      27       14       42 1        
      28       15       20 ar       
      29       15       16 ar       
      30       16       17 ar       
      31       16       43 1        
      32       17       18 ar       
      33       17       44 1        
      34       18       19 ar       
      35       18       45 1        
      36       19       20 ar       
      37       19       46 1        
      38       20       21 1        
      39       21       22 2        
      40       21       23 am       
      41       23       24 1        
      42       23       47 1        
      43       24       25 1        
      44       24       48 1        
      45       24       49 1        
      46       25       29 1        
      47       25       26 2        
      48       26       27 1        
      49       26       50 1        
      50       27       28 2        
      51       27       51 1        
      52       28       29 1        
      53       28       52 1        

