#        1GCZ_R01_S0001_C0000_L00017_S0001_C0037_G0010_E0001.mol2
#        Tue Jun  6 14:19:29 2017
#        Descriptor:      7    17    15     9    10    14
#        Energy - RMSD - RMSD MassCentre:     -68.5039    999.9999    999.9999
#        Receptor:       1  Surface Point:     1  Conformer:     0
#        Ligand:        17  Surface Point:     1  Conformer:    37
#        BUDE Formal Charge: 0
#        ATOM Count: 52
#        Heavy ATOM Count: 29
@<TRIPOS>MOLECULE
ZINC61282001_1GCZ_R01_S0001_C0000_L00017_S0001_C0037_G0010_E0001
 52 53 0 0 0
SMALL
USER_CHARGES
@<TRIPOS>ATOM
       1 C1         0.7948    0.5566    8.8492 C.3       1 <0>        -0.1391 
       2 C2         0.7312   -0.9678    8.8185 C.3       1 <0>        -0.1418 
       3 C3         0.0264   -1.4160    7.5605 C.2       1 <0>         0.5169 
       4 O1         0.6157   -2.1203    6.7421 O.2       1 <0>        -0.5335 
       5 N1        -1.2322   -1.0489    7.3370 N.am      1 <0>        -0.7285 
       6 C4        -1.9181   -1.4852    6.1124 C.3       1 <0>         0.1288 
       7 C5        -1.4316   -0.6622    4.9437 C.2       1 <0>         0.4630 
       8 O2        -0.8214   -1.1830    4.0579 O.2       1 <0>        -0.4988 
       9 O3        -1.6866    0.6627    4.8991 O.3       1 <0>        -0.3175 
      10 C6        -1.2060    1.4006    3.7724 C.3       1 <0>         0.0731 
      11 C7        -1.7594    0.7888    2.4886 C.3       1 <0>        -0.1692 
      12 C8         0.3029    1.3484    3.7441 C.2       1 <0>         0.5202 
      13 O4         0.8857    0.9247    2.7473 O.2       1 <0>        -0.4963 
      14 N2         1.0020    1.7605    4.7978 N.am      1 <0>        -0.6538 
      15 C9         2.4159    1.7120    4.7728 C.ar      1 <0>         0.2101 
      16 C10        3.0982    0.8586    3.8977 C.ar      1 <0>        -0.1321 
      17 C11        4.4966    0.8075    3.9426 C.ar      1 <0>        -0.0675 
      18 C12        5.2033    1.6031    4.8535 C.ar      1 <0>        -0.1401 
      19 C13        4.5185    2.4812    5.7019 C.ar      1 <0>        -0.0656 
      20 C14        3.1196    2.5225    5.6716 C.ar      1 <0>        -0.1718 
      21 C15        2.3072    3.3823    6.5611 C.2       1 <0>         0.5702 
      22 O5         1.0797    3.3588    6.4854 O.2       1 <0>        -0.5422 
      23 N3         2.9049    4.1800    7.4417 N.am      1 <0>        -0.7214 
      24 C16        2.0980    5.0340    8.3251 C.3       1 <0>         0.2043 
      25 C17        1.5376    6.1901    7.5318 C.2       1 <0>        -0.0464 
      26 C18        1.7245    6.4186    6.2247 C.2       1 <0>        -0.1782 
      27 C19        0.9595    7.6628    5.9852 C.2       1 <0>        -0.2183 
      28 C20        0.4368    7.9615    7.1776 C.2       1 <0>        -0.0240 
      29 O6         0.7442    7.0993    8.2276 O.3       1 <0>        -0.1712 
      30 H1        -0.2153    0.9612    8.8480 H         1 <0>         0.0628 
      31 H2         1.3142    0.8792    9.7491 H         1 <0>         0.0628 
      32 H3         1.3304    0.9143    7.9723 H         1 <0>         0.0640 
      33 H4         0.1834   -1.3261    9.6875 H         1 <0>         0.0966 
      34 H5         1.7405   -1.3738    8.8323 H         1 <0>         0.0966 
      35 H6        -1.7170   -0.4706    8.0082 H         1 <0>         0.4131 
      36 H7        -1.7027   -2.5359    5.9299 H         1 <0>         0.1171 
      37 H8        -2.9913   -1.3495    6.2291 H         1 <0>         0.1171 
      38 H9        -1.5309    2.4361    3.8509 H         1 <0>         0.1185 
      39 H10       -1.4442   -0.2501    2.4175 H         1 <0>         0.0777 
      40 H11       -2.8460    0.8386    2.5032 H         1 <0>         0.0803 
      41 H12       -1.3818    1.3424    1.6316 H         1 <0>         0.0842 
      42 H13        0.5234    2.1082    5.6162 H         1 <0>         0.4245 
      43 H14        2.5506    0.2426    3.2000 H         1 <0>         0.1486 
      44 H15        5.0291    0.1440    3.2772 H         1 <0>         0.1348 
      45 H16        6.2808    1.5472    4.8995 H         1 <0>         0.1332 
      46 H17        5.0706    3.1201    6.3753 H         1 <0>         0.1296 
      47 H18        3.9129    4.1986    7.5029 H         1 <0>         0.4054 
      48 H19        2.7230    5.4147    9.1303 H         1 <0>         0.1035 
      49 H20        1.2807    4.4512    8.7444 H         1 <0>         0.0890 
      50 H21        2.2885    5.8529    5.4978 H         1 <0>         0.1520 
      51 H22        0.8428    8.2038    5.0579 H         1 <0>         0.1526 
      52 H23       -0.1888    8.8205    7.3698 H         1 <0>         0.2068 
@<TRIPOS>BOND
       1        1        2 1        
       2        1       30 1        
       3        1       31 1        
       4        1       32 1        
       5        2        3 1        
       6        2       33 1        
       7        2       34 1        
       8        3        4 2        
       9        3        5 am       
      10        5        6 1        
      11        5       35 1        
      12        6        7 1        
      13        6       36 1        
      14        6       37 1        
      15        7        8 2        
      16        7        9 1        
      17        9       10 1        
      18       10       11 1        
      19       10       12 1        
      20       10       38 1        
      21       11       39 1        
      22       11       40 1        
      23       11       41 1        
      24       12       13 2        
      25       12       14 am       
      26       14       15 1        
      27       14       42 1        
      28       15       20 ar       
      29       15       16 ar       
      30       16       17 ar       
      31       16       43 1        
      32       17       18 ar       
      33       17       44 1        
      34       18       19 ar       
      35       18       45 1        
      36       19       20 ar       
      37       19       46 1        
      38       20       21 1        
      39       21       22 2        
      40       21       23 am       
      41       23       24 1        
      42       23       47 1        
      43       24       25 1        
      44       24       48 1        
      45       24       49 1        
      46       25       29 1        
      47       25       26 2        
      48       26       27 1        
      49       26       50 1        
      50       27       28 2        
      51       27       51 1        
      52       28       29 1        
      53       28       52 1        

