#        1GCZ_R01_S0001_C0000_L00017_S0001_C0038_G0010_E0001.mol2
#        Tue Jun  6 10:01:31 2017
#        Descriptor:     11     3    16    10     7    13
#        Energy - RMSD - RMSD MassCentre:     -67.7089    999.9999    999.9999
#        Receptor:       1  Surface Point:     1  Conformer:     0
#        Ligand:        17  Surface Point:     1  Conformer:    38
#        BUDE Formal Charge: 0
#        ATOM Count: 52
#        Heavy ATOM Count: 29
@<TRIPOS>MOLECULE
ZINC61282001_1GCZ_R01_S0001_C0000_L00017_S0001_C0038_G0010_E0001
 52 53 0 0 0
SMALL
USER_CHARGES
@<TRIPOS>ATOM
       1 C1         3.9893   -7.2974    5.0365 C.3       1 <0>        -0.1391 
       2 C2         4.6868   -5.9621    4.7941 C.3       1 <0>        -0.1418 
       3 C3         3.7513   -4.8335    5.1566 C.2       1 <0>         0.5169 
       4 O1         3.4119   -4.0164    4.3021 O.2       1 <0>        -0.5335 
       5 N1         3.2941   -4.7227    6.4007 N.am      1 <0>        -0.7285 
       6 C4         2.3835   -3.6241    6.7535 C.3       1 <0>         0.1288 
       7 C5         3.1709   -2.3429    6.8894 C.2       1 <0>         0.4630 
       8 O2         3.2547   -1.8020    7.9516 O.2       1 <0>        -0.4988 
       9 O3         3.7808   -1.8083    5.8102 O.3       1 <0>        -0.3175 
      10 C6         4.5150   -0.5941    5.9877 C.3       1 <0>         0.0731 
      11 C7         5.5832   -0.7961    7.0586 C.3       1 <0>        -0.1692 
      12 C8         3.5727    0.5044    6.4188 C.2       1 <0>         0.5202 
      13 O4         3.7836    1.1227    7.4609 O.2       1 <0>        -0.4963 
      14 N2         2.5141    0.8033    5.6713 N.am      1 <0>        -0.6538 
      15 C9         1.6302    1.8322    6.0740 C.ar      1 <0>         0.2101 
      16 C10        2.0197    2.8009    7.0065 C.ar      1 <0>        -0.1321 
      17 C11        1.0955    3.7708    7.4128 C.ar      1 <0>        -0.0675 
      18 C12       -0.2041    3.7704    6.8901 C.ar      1 <0>        -0.1401 
      19 C13       -0.5781    2.8215    5.9312 C.ar      1 <0>        -0.0656 
      20 C14        0.3381    1.8400    5.5353 C.ar      1 <0>        -0.1718 
      21 C15        0.0207    0.7687    4.5647 C.2       1 <0>         0.5702 
      22 O5         0.8738   -0.0675    4.2714 O.2       1 <0>        -0.5422 
      23 N3        -1.1869    0.7107    4.0102 N.am      1 <0>        -0.7214 
      24 C16       -1.5023   -0.3534    3.0463 C.3       1 <0>         0.2043 
      25 C17       -0.8205   -0.0585    1.7316 C.2       1 <0>        -0.0464 
      26 C18        0.2799   -0.6583    1.2576 C.2       1 <0>        -0.1782 
      27 C19        0.4960    0.0100   -0.0452 C.2       1 <0>        -0.2183 
      28 C20       -0.5110    0.8828   -0.1374 C.2       1 <0>        -0.0240 
      29 O6        -1.3993    0.9265    0.9346 O.3       1 <0>        -0.1712 
      30 H1         3.1014   -7.3610    4.4107 H         1 <0>         0.0628 
      31 H2         4.6679   -8.1107    4.7880 H         1 <0>         0.0628 
      32 H3         3.7018   -7.3710    6.0832 H         1 <0>         0.0640 
      33 H4         4.9621   -5.8811    3.7447 H         1 <0>         0.0966 
      34 H5         5.5816   -5.9026    5.4102 H         1 <0>         0.0966 
      35 H6         3.5722   -5.3931    7.1031 H         1 <0>         0.4131 
      36 H7         1.6348   -3.5079    5.9727 H         1 <0>         0.1171 
      37 H8         1.8918   -3.8488    7.6976 H         1 <0>         0.1171 
      38 H9         4.9896   -0.3160    5.0489 H         1 <0>         0.1185 
      39 H10        5.1082   -1.0862    7.9935 H         1 <0>         0.0777 
      40 H11        6.2697   -1.5783    6.7419 H         1 <0>         0.0803 
      41 H12        6.1316    0.1323    7.2026 H         1 <0>         0.0842 
      42 H13        2.3409    0.2955    4.8157 H         1 <0>         0.4245 
      43 H14        3.0209    2.7957    7.4116 H         1 <0>         0.1486 
      44 H15        1.3860    4.5151    8.1394 H         1 <0>         0.1348 
      45 H16       -0.9209    4.5078    7.2201 H         1 <0>         0.1332 
      46 H17       -1.5693    2.8497    5.5034 H         1 <0>         0.1296 
      47 H18       -1.8867    1.3978    4.2518 H         1 <0>         0.4054 
      48 H19       -2.5788   -0.3977    2.8954 H         1 <0>         0.1035 
      49 H20       -1.1499   -1.3075    3.4323 H         1 <0>         0.0890 
      50 H21        0.8834   -1.4404    1.6943 H         1 <0>         0.1520 
      51 H22        1.2828   -0.1698   -0.7628 H         1 <0>         0.1526 
      52 H23       -0.6650    1.5478   -0.9743 H         1 <0>         0.2068 
@<TRIPOS>BOND
       1        1        2 1        
       2        1       30 1        
       3        1       31 1        
       4        1       32 1        
       5        2        3 1        
       6        2       33 1        
       7        2       34 1        
       8        3        4 2        
       9        3        5 am       
      10        5        6 1        
      11        5       35 1        
      12        6        7 1        
      13        6       36 1        
      14        6       37 1        
      15        7        8 2        
      16        7        9 1        
      17        9       10 1        
      18       10       11 1        
      19       10       12 1        
      20       10       38 1        
      21       11       39 1        
      22       11       40 1        
      23       11       41 1        
      24       12       13 2        
      25       12       14 am       
      26       14       15 1        
      27       14       42 1        
      28       15       20 ar       
      29       15       16 ar       
      30       16       17 ar       
      31       16       43 1        
      32       17       18 ar       
      33       17       44 1        
      34       18       19 ar       
      35       18       45 1        
      36       19       20 ar       
      37       19       46 1        
      38       20       21 1        
      39       21       22 2        
      40       21       23 am       
      41       23       24 1        
      42       23       47 1        
      43       24       25 1        
      44       24       48 1        
      45       24       49 1        
      46       25       29 1        
      47       25       26 2        
      48       26       27 1        
      49       26       50 1        
      50       27       28 2        
      51       27       51 1        
      52       28       29 1        
      53       28       52 1        

