#        1GCZ_R01_S0001_C0000_L00017_S0001_C0038_G0010_E0001.mol2
#        Tue Jun  6 14:19:31 2017
#        Descriptor:     13     3    11     9     6    14
#        Energy - RMSD - RMSD MassCentre:     -71.3367    999.9999    999.9999
#        Receptor:       1  Surface Point:     1  Conformer:     0
#        Ligand:        17  Surface Point:     1  Conformer:    38
#        BUDE Formal Charge: 0
#        ATOM Count: 52
#        Heavy ATOM Count: 29
@<TRIPOS>MOLECULE
ZINC61282001_1GCZ_R01_S0001_C0000_L00017_S0001_C0038_G0010_E0001
 52 53 0 0 0
SMALL
USER_CHARGES
@<TRIPOS>ATOM
       1 C1        -1.3067   -8.0084    7.4810 C.3       1 <0>        -0.1391 
       2 C2        -0.0418   -7.4913    6.8021 C.3       1 <0>        -0.1418 
       3 C3         0.0371   -5.9918    6.9619 C.2       1 <0>         0.5169 
       4 O1         0.0465   -5.2664    5.9687 O.2       1 <0>        -0.5335 
       5 N1         0.0965   -5.4552    8.1774 N.am      1 <0>        -0.7285 
       6 C4         0.1732   -3.9955    8.3329 C.3       1 <0>         0.1288 
       7 C5         1.5747   -3.5297    8.0184 C.2       1 <0>         0.4630 
       8 O2         2.2508   -3.0451    8.8763 O.2       1 <0>        -0.4988 
       9 O3         2.0644   -3.6611    6.7672 O.3       1 <0>        -0.3175 
      10 C6         3.3967   -3.2058    6.5172 C.3       1 <0>         0.0731 
      11 C7         4.3637   -3.9167    7.4596 C.3       1 <0>        -0.1692 
      12 C8         3.4707   -1.7159    6.7514 C.2       1 <0>         0.5202 
      13 O4         4.2834   -1.2583    7.5532 O.2       1 <0>        -0.4963 
      14 N2         2.6565   -0.8979    6.0904 N.am      1 <0>        -0.6538 
      15 C9         2.7246    0.4984    6.3089 C.ar      1 <0>         0.2101 
      16 C10        3.8535    1.0887    6.8893 C.ar      1 <0>        -0.1321 
      17 C11        3.8566    2.4674    7.1322 C.ar      1 <0>        -0.0675 
      18 C12        2.7415    3.2459    6.7968 C.ar      1 <0>        -0.1401 
      19 C13        1.6291    2.6571    6.1840 C.ar      1 <0>        -0.0656 
      20 C14        1.6157    1.2761    5.9551 C.ar      1 <0>        -0.1718 
      21 C15        0.4685    0.5573    5.3570 C.2       1 <0>         0.5702 
      22 O5         0.5233   -0.6608    5.1948 O.2       1 <0>        -0.5422 
      23 N3        -0.6211    1.2288    4.9952 N.am      1 <0>        -0.7214 
      24 C16       -1.7605    0.5148    4.4012 C.3       1 <0>         0.2043 
      25 C17       -1.4254    0.1274    2.9808 C.2       1 <0>        -0.0464 
      26 C18       -1.0909   -1.0970    2.5513 C.2       1 <0>        -0.1782 
      27 C19       -0.8758   -0.9005    1.1002 C.2       1 <0>        -0.2183 
      28 C20       -1.1277    0.3966    0.9037 C.2       1 <0>        -0.0240 
      29 O6        -1.4784    1.1415    2.0273 O.3       1 <0>        -0.1712 
      30 H1        -2.1792   -7.5579    7.0124 H         1 <0>         0.0628 
      31 H2        -1.3567   -9.0904    7.3775 H         1 <0>         0.0628 
      32 H3        -1.2846   -7.7451    8.5364 H         1 <0>         0.0640 
      33 H4        -0.0691   -7.7416    5.7437 H         1 <0>         0.0966 
      34 H5         0.8309   -7.9507    7.2617 H         1 <0>         0.0966 
      35 H6         0.0888   -6.0500    8.9937 H         1 <0>         0.4131 
      36 H7        -0.5280   -3.5201    7.6503 H         1 <0>         0.1171 
      37 H8        -0.0768   -3.7255    9.3567 H         1 <0>         0.1171 
      38 H9         3.6676   -3.4240    5.4862 H         1 <0>         0.1185 
      39 H10        4.0841   -3.7077    8.4901 H         1 <0>         0.0777 
      40 H11        4.3200   -4.9890    7.2816 H         1 <0>         0.0803 
      41 H12        5.3749   -3.5591    7.2780 H         1 <0>         0.0842 
      42 H13        1.9892   -1.2737    5.4321 H         1 <0>         0.4245 
      43 H14        4.7099    0.4851    7.1515 H         1 <0>         0.1486 
      44 H15        4.7202    2.9280    7.5889 H         1 <0>         0.1348 
      45 H16        2.7389    4.3060    7.0034 H         1 <0>         0.1332 
      46 H17        0.7878    3.2685    5.8927 H         1 <0>         0.1296 
      47 H18       -0.6651    2.2290    5.1288 H         1 <0>         0.4054 
      48 H19       -2.6349    1.1622    4.4046 H         1 <0>         0.1035 
      49 H20       -1.9693   -0.3808    4.9824 H         1 <0>         0.0890 
      50 H21       -0.9938   -2.0204    3.1029 H         1 <0>         0.1520 
      51 H22       -0.5882   -1.6368    0.3645 H         1 <0>         0.1526 
      52 H23       -1.0666    0.8898   -0.0551 H         1 <0>         0.2068 
@<TRIPOS>BOND
       1        1        2 1        
       2        1       30 1        
       3        1       31 1        
       4        1       32 1        
       5        2        3 1        
       6        2       33 1        
       7        2       34 1        
       8        3        4 2        
       9        3        5 am       
      10        5        6 1        
      11        5       35 1        
      12        6        7 1        
      13        6       36 1        
      14        6       37 1        
      15        7        8 2        
      16        7        9 1        
      17        9       10 1        
      18       10       11 1        
      19       10       12 1        
      20       10       38 1        
      21       11       39 1        
      22       11       40 1        
      23       11       41 1        
      24       12       13 2        
      25       12       14 am       
      26       14       15 1        
      27       14       42 1        
      28       15       20 ar       
      29       15       16 ar       
      30       16       17 ar       
      31       16       43 1        
      32       17       18 ar       
      33       17       44 1        
      34       18       19 ar       
      35       18       45 1        
      36       19       20 ar       
      37       19       46 1        
      38       20       21 1        
      39       21       22 2        
      40       21       23 am       
      41       23       24 1        
      42       23       47 1        
      43       24       25 1        
      44       24       48 1        
      45       24       49 1        
      46       25       29 1        
      47       25       26 2        
      48       26       27 1        
      49       26       50 1        
      50       27       28 2        
      51       27       51 1        
      52       28       29 1        
      53       28       52 1        

