#        1GCZ_R01_S0001_C0000_L00003_S0001_C0038_G0010_E0001.mol2
#        Tue Jun  6 14:04:43 2017
#        Descriptor:     18    32    20    12     4    15
#        Energy - RMSD - RMSD MassCentre:     -59.1484    999.9999    999.9999
#        Receptor:       1  Surface Point:     1  Conformer:     0
#        Ligand:         3  Surface Point:     1  Conformer:    38
#        BUDE Formal Charge: 0
#        ATOM Count: 58
#        Heavy ATOM Count: 30
@<TRIPOS>MOLECULE
ZINC61580633_1GCZ_R01_S0001_C0000_L00003_S0001_C0038_G0010_E0001
 58 59 0 0 0
SMALL
USER_CHARGES
@<TRIPOS>ATOM
       1 C1        10.8966    1.7445    5.6545 C.3       1 <0>        -0.1532 
       2 C2        10.0540    1.6301    6.9216 C.3       1 <0>        -0.1224 
       3 C3         8.8255    0.7665    6.6391 C.3       1 <0>        -0.1198 
       4 C4         7.9819    0.6519    7.9078 C.3       1 <0>         0.0610 
       5 O1         6.8322   -0.1562    7.6435 O.3       1 <0>        -0.3878 
       6 C5         6.0050    0.4084    6.6226 C.3       1 <0>         0.0487 
       7 C6         4.7978   -0.4982    6.3871 C.3       1 <0>         0.1244 
       8 N1         3.9477    0.0822    5.3378 N.am      1 <0>        -0.7216 
       9 C7         2.8331   -0.5409    4.9652 C.2       1 <0>         0.5161 
      10 O2         2.1210   -0.0564    4.0874 O.2       1 <0>        -0.5151 
      11 C8         2.4422   -1.8440    5.6204 C.3       1 <0>         0.0490 
      12 O3         3.3507   -2.8714    5.2156 O.3       1 <0>        -0.3194 
      13 C9         3.1584   -4.1152    5.7041 C.2       1 <0>         0.5417 
      14 O4         2.2318   -4.3355    6.4665 O.2       1 <0>        -0.5337 
      15 C10        4.0721   -5.2121    5.3144 C.2       1 <0>        -0.2559 
      16 C11        5.2162   -5.0583    4.3882 C.2       1 <0>        -0.0791 
      17 C12        5.8714   -6.2052    4.1942 C.2       1 <0>        -0.2585 
      18 S1         5.1750   -7.5520    5.1072 S.3       1 <0>         0.3028 
      19 C13        3.9385   -6.4681    5.7619 C.2       1 <0>         0.0893 
      20 N2         2.9362   -6.8335    6.6214 N.am      1 <0>        -0.6099 
      21 C14        2.8432   -8.0929    7.0388 C.2       1 <0>         0.5551 
      22 O5         3.6576   -8.9300    6.6530 O.2       1 <0>        -0.4939 
      23 C15        1.7599   -8.4860    7.9674 C.ar      1 <0>        -0.1466 
      24 C16        1.6975   -9.8227    8.3790 C.ar      1 <0>        -0.0772 
      25 C17        0.6538  -10.2707    9.1973 C.ar      1 <0>        -0.1241 
      26 C18       -0.3536   -9.3916    9.6113 C.ar      1 <0>        -0.0446 
      27 C19       -0.2650   -8.0432    9.2454 C.ar      1 <0>        -0.1261 
      28 C20        0.7962   -7.5930    8.4510 C.ar      1 <0>        -0.0460 
      29 C21       -1.5040   -9.9079   10.4422 C.3       1 <0>        -0.0928 
      30 C22       -2.6338  -10.3585    9.5208 C.3       1 <0>        -0.1485 
      31 H1        10.3081    2.2151    4.8697 H         1 <0>         0.0567 
      32 H2        11.2032    0.7515    5.3327 H         1 <0>         0.0554 
      33 H3        11.7782    2.3482    5.8593 H         1 <0>         0.0557 
      34 H4        10.6455    1.1710    7.7110 H         1 <0>         0.0632 
      35 H5         9.7350    2.6214    7.2366 H         1 <0>         0.0635 
      36 H6         8.2329    1.2249    5.8504 H         1 <0>         0.0711 
      37 H7         9.1433   -0.2254    6.3249 H         1 <0>         0.0704 
      38 H8         8.5733    0.1928    8.6973 H         1 <0>         0.0498 
      39 H9         7.6628    1.6434    8.2226 H         1 <0>         0.0505 
      40 H10        6.5757    0.4981    5.7007 H         1 <0>         0.0584 
      41 H11        5.6629    1.3928    6.9354 H         1 <0>         0.0702 
      42 H12        4.2258   -0.5881    7.3081 H         1 <0>         0.0872 
      43 H13        5.1387   -1.4827    6.0735 H         1 <0>         0.0805 
      44 H14        4.2092    0.9537    4.8995 H         1 <0>         0.4058 
      45 H15        2.4802   -1.7326    6.7020 H         1 <0>         0.1008 
      46 H16        1.4325   -2.1139    5.3182 H         1 <0>         0.0999 
      47 H17        5.4805   -4.1118    3.9405 H         1 <0>         0.1557 
      48 H18        6.7392   -6.2828    3.5562 H         1 <0>         0.1929 
      49 H19        2.2675   -6.1462    6.9383 H         1 <0>         0.4317 
      50 H20        2.4591  -10.5187    8.0594 H         1 <0>         0.1287 
      51 H21        0.6196  -11.3028    9.5135 H         1 <0>         0.1326 
      52 H22       -1.0241   -7.3553    9.5876 H         1 <0>         0.1342 
      53 H23        0.8443   -6.5330    8.2502 H         1 <0>         0.1410 
      54 H24       -1.8625   -9.1156   11.0961 H         1 <0>         0.0777 
      55 H25       -1.1673  -10.7501   11.0430 H         1 <0>         0.0771 
      56 H26       -2.2776  -11.1592    8.8762 H         1 <0>         0.0623 
      57 H27       -2.9600   -9.5188    8.9106 H         1 <0>         0.0572 
      58 H28       -3.4678  -10.7180   10.1199 H         1 <0>         0.0578 
@<TRIPOS>BOND
       1        1        2 1        
       2        1       31 1        
       3        1       32 1        
       4        1       33 1        
       5        2        3 1        
       6        2       34 1        
       7        2       35 1        
       8        3        4 1        
       9        3       36 1        
      10        3       37 1        
      11        4        5 1        
      12        4       38 1        
      13        4       39 1        
      14        5        6 1        
      15        6        7 1        
      16        6       40 1        
      17        6       41 1        
      18        7        8 1        
      19        7       42 1        
      20        7       43 1        
      21        8        9 am       
      22        8       44 1        
      23        9       10 2        
      24        9       11 1        
      25       11       12 1        
      26       11       45 1        
      27       11       46 1        
      28       12       13 1        
      29       13       14 2        
      30       13       15 1        
      31       15       19 2        
      32       15       16 1        
      33       16       17 2        
      34       16       47 1        
      35       17       18 1        
      36       17       48 1        
      37       18       19 1        
      38       19       20 1        
      39       20       21 am       
      40       20       49 1        
      41       21       22 2        
      42       21       23 1        
      43       23       28 ar       
      44       23       24 ar       
      45       24       25 ar       
      46       24       50 1        
      47       25       26 ar       
      48       25       51 1        
      49       26       27 ar       
      50       26       29 1        
      51       27       28 ar       
      52       27       52 1        
      53       28       53 1        
      54       29       30 1        
      55       29       54 1        
      56       29       55 1        
      57       30       56 1        
      58       30       57 1        
      59       30       58 1        

