#        1GCZ_R01_S0001_C0000_L00017_S0001_C0039_G0010_E0001.mol2
#        Tue Jun  6 10:01:32 2017
#        Descriptor:     31     8     8     8     6    15
#        Energy - RMSD - RMSD MassCentre:     -63.7959    999.9999    999.9999
#        Receptor:       1  Surface Point:     1  Conformer:     0
#        Ligand:        17  Surface Point:     1  Conformer:    39
#        BUDE Formal Charge: 0
#        ATOM Count: 52
#        Heavy ATOM Count: 29
@<TRIPOS>MOLECULE
ZINC61282001_1GCZ_R01_S0001_C0000_L00017_S0001_C0039_G0010_E0001
 52 53 0 0 0
SMALL
USER_CHARGES
@<TRIPOS>ATOM
       1 C1         2.7838    3.3506    6.0929 C.3       1 <0>        -0.1391 
       2 C2         3.5784    2.1263    6.5380 C.3       1 <0>        -0.1418 
       3 C3         3.0937    0.9113    5.7837 C.2       1 <0>         0.5169 
       4 O1         2.6161   -0.0432    6.3951 O.2       1 <0>        -0.5335 
       5 N1         3.1833    0.8732    4.4572 N.am      1 <0>        -0.7285 
       6 C4         2.7116   -0.3095    3.7230 C.3       1 <0>         0.1288 
       7 C5         1.2031   -0.2917    3.6575 C.2       1 <0>         0.4630 
       8 O2         0.6513   -0.1727    2.6043 O.2       1 <0>        -0.4988 
       9 O3         0.4774   -0.4103    4.7896 O.3       1 <0>        -0.3175 
      10 C6        -0.9481   -0.3879    4.6779 C.3       1 <0>         0.0731 
      11 C7        -1.3904    0.9363    4.0618 C.3       1 <0>        -0.1692 
      12 C8        -1.5618   -0.5336    6.0499 C.2       1 <0>         0.5202 
      13 O4        -2.3462    0.3170    6.4670 O.2       1 <0>        -0.4963 
      14 N2        -1.2540   -1.5822    6.8077 N.am      1 <0>        -0.6538 
      15 C9        -1.8281   -1.7201    8.0936 C.ar      1 <0>         0.2101 
      16 C10       -2.3446   -0.6152    8.7808 C.ar      1 <0>        -0.1321 
      17 C11       -2.8579   -0.7905   10.0715 C.ar      1 <0>        -0.0675 
      18 C12       -2.8546   -2.0587   10.6664 C.ar      1 <0>        -0.1401 
      19 C13       -2.3700   -3.1668    9.9615 C.ar      1 <0>        -0.0656 
      20 C14       -1.8403   -2.9924    8.6775 C.ar      1 <0>        -0.1718 
      21 C15       -1.2628   -4.0933    7.8743 C.2       1 <0>         0.5702 
      22 O5        -0.8054   -3.8637    6.7559 O.2       1 <0>        -0.5422 
      23 N3        -1.2389   -5.3303    8.3625 N.am      1 <0>        -0.7214 
      24 C16       -0.6654   -6.4237    7.5647 C.3       1 <0>         0.2043 
      25 C17       -0.2998   -7.5716    8.4752 C.2       1 <0>        -0.0464 
      26 C18       -0.4701   -7.6145    9.8037 C.2       1 <0>        -0.1782 
      27 C19        0.0513   -8.9505   10.1694 C.2       1 <0>        -0.2183 
      28 C20        0.4323   -9.4841    9.0055 C.2       1 <0>        -0.0240 
      29 O6         0.2603   -8.6946    7.8708 O.3       1 <0>        -0.1712 
      30 H1         1.7292    3.1973    6.3122 H         1 <0>         0.0628 
      31 H2         3.1419    4.2284    6.6268 H         1 <0>         0.0628 
      32 H3         2.9146    3.4976    5.0229 H         1 <0>         0.0640 
      33 H4         3.4370    1.9699    7.6055 H         1 <0>         0.0966 
      34 H5         4.6347    2.2837    6.3306 H         1 <0>         0.0966 
      35 H6         3.5754    1.6564    3.9541 H         1 <0>         0.4131 
      36 H7         3.1179   -0.2966    2.7138 H         1 <0>         0.1171 
      37 H8         3.0410   -1.2108    4.2355 H         1 <0>         0.1171 
      38 H9        -1.2759   -1.2104    4.0456 H         1 <0>         0.1185 
      39 H10       -1.0513    1.7584    4.6886 H         1 <0>         0.0777 
      40 H11       -0.9589    1.0351    3.0681 H         1 <0>         0.0803 
      41 H12       -2.4757    0.9577    3.9904 H         1 <0>         0.0842 
      42 H13       -0.6098   -2.2806    6.4652 H         1 <0>         0.4245 
      43 H14       -2.3412    0.3622    8.3217 H         1 <0>         0.1486 
      44 H15       -3.2488    0.0591   10.6115 H         1 <0>         0.1348 
      45 H16       -3.2332   -2.1874   11.6696 H         1 <0>         0.1332 
      46 H17       -2.4051   -4.1485   10.4105 H         1 <0>         0.1296 
      47 H18       -1.6149   -5.5177    9.2810 H         1 <0>         0.4054 
      48 H19        0.2259   -6.0686    7.0518 H         1 <0>         0.1035 
      49 H20       -1.3965   -6.7595    6.8325 H         1 <0>         0.0890 
      50 H21       -0.8835   -6.8735   10.4718 H         1 <0>         0.1520 
      51 H22        0.1060   -9.3975   11.1509 H         1 <0>         0.1526 
      52 H23        0.8651  -10.4679    8.9000 H         1 <0>         0.2068 
@<TRIPOS>BOND
       1        1        2 1        
       2        1       30 1        
       3        1       31 1        
       4        1       32 1        
       5        2        3 1        
       6        2       33 1        
       7        2       34 1        
       8        3        4 2        
       9        3        5 am       
      10        5        6 1        
      11        5       35 1        
      12        6        7 1        
      13        6       36 1        
      14        6       37 1        
      15        7        8 2        
      16        7        9 1        
      17        9       10 1        
      18       10       11 1        
      19       10       12 1        
      20       10       38 1        
      21       11       39 1        
      22       11       40 1        
      23       11       41 1        
      24       12       13 2        
      25       12       14 am       
      26       14       15 1        
      27       14       42 1        
      28       15       20 ar       
      29       15       16 ar       
      30       16       17 ar       
      31       16       43 1        
      32       17       18 ar       
      33       17       44 1        
      34       18       19 ar       
      35       18       45 1        
      36       19       20 ar       
      37       19       46 1        
      38       20       21 1        
      39       21       22 2        
      40       21       23 am       
      41       23       24 1        
      42       23       47 1        
      43       24       25 1        
      44       24       48 1        
      45       24       49 1        
      46       25       29 1        
      47       25       26 2        
      48       26       27 1        
      49       26       50 1        
      50       27       28 2        
      51       27       51 1        
      52       28       29 1        
      53       28       52 1        

