#        1GCZ_R01_S0001_C0000_L00017_S0001_C0039_G0010_E0001.mol2
#        Tue Jun  6 14:19:33 2017
#        Descriptor:     29     8     9     8     6    15
#        Energy - RMSD - RMSD MassCentre:     -65.0970    999.9999    999.9999
#        Receptor:       1  Surface Point:     1  Conformer:     0
#        Ligand:        17  Surface Point:     1  Conformer:    39
#        BUDE Formal Charge: 0
#        ATOM Count: 52
#        Heavy ATOM Count: 29
@<TRIPOS>MOLECULE
ZINC61282001_1GCZ_R01_S0001_C0000_L00017_S0001_C0039_G0010_E0001
 52 53 0 0 0
SMALL
USER_CHARGES
@<TRIPOS>ATOM
       1 C1         3.6946    2.7965    6.2615 C.3       1 <0>        -0.1391 
       2 C2         4.2436    1.4605    6.7539 C.3       1 <0>        -0.1418 
       3 C3         3.6068    0.3367    5.9719 C.2       1 <0>         0.5169 
       4 O1         2.9397   -0.5175    6.5536 O.2       1 <0>        -0.5335 
       5 N1         3.7673    0.2704    4.6533 N.am      1 <0>        -0.7285 
       6 C4         3.1475   -0.8236    3.8921 C.3       1 <0>         0.1288 
       7 C5         1.6702   -0.5530    3.7358 C.2       1 <0>         0.4630 
       8 O2         1.2099   -0.3537    2.6513 O.2       1 <0>        -0.4988 
       9 O3         0.8689   -0.5361    4.8221 O.3       1 <0>        -0.3175 
      10 C6        -0.5232   -0.2754    4.6247 C.3       1 <0>         0.0731 
      11 C7        -0.6987    1.0979    3.9828 C.3       1 <0>        -0.1692 
      12 C8        -1.2331   -0.3016    5.9572 C.2       1 <0>         0.5202 
      13 O4        -1.8863    0.6731    6.3262 O.2       1 <0>        -0.4963 
      14 N2        -1.1519   -1.3792    6.7324 N.am      1 <0>        -0.6538 
      15 C9        -1.8165   -1.4053    7.9813 C.ar      1 <0>         0.2101 
      16 C10       -2.1792   -0.2223    8.6361 C.ar      1 <0>        -0.1321 
      17 C11       -2.7905   -0.2954    9.8935 C.ar      1 <0>        -0.0675 
      18 C12       -3.0363   -1.5398   10.4877 C.ar      1 <0>        -0.1401 
      19 C13       -2.7044   -2.7209    9.8134 C.ar      1 <0>        -0.0656 
      20 C14       -2.0776   -2.6513    8.5637 C.ar      1 <0>        -0.1718 
      21 C15       -1.6472   -3.8419    7.7970 C.2       1 <0>         0.5702 
      22 O5        -1.0920   -3.7040    6.7081 O.2       1 <0>        -0.5422 
      23 N3        -1.8611   -5.0602    8.2858 N.am      1 <0>        -0.7214 
      24 C16       -1.4338   -6.2427    7.5243 C.3       1 <0>         0.2043 
      25 C17       -1.3216   -7.4262    8.4554 C.2       1 <0>        -0.0464 
      26 C18       -1.5752   -7.4262    9.7711 C.2       1 <0>        -0.1782 
      27 C19       -1.3091   -8.8270   10.1678 C.2       1 <0>        -0.2183 
      28 C20       -0.9551   -9.4291    9.0291 C.2       1 <0>        -0.0240 
      29 O6        -0.9239   -8.6337    7.8860 O.3       1 <0>        -0.1712 
      30 H1         2.6181    2.8250    6.4169 H         1 <0>         0.0628 
      31 H2         4.1632    3.6069    6.8159 H         1 <0>         0.0628 
      32 H3         3.9116    2.9083    5.2014 H         1 <0>         0.0640 
      33 H4         4.0148    1.3412    7.8109 H         1 <0>         0.0966 
      34 H5         5.3218    1.4359    6.6105 H         1 <0>         0.0966 
      35 H6         4.3149    0.9713    4.1746 H         1 <0>         0.4131 
      36 H7         3.6093   -0.8896    2.9092 H         1 <0>         0.1171 
      37 H8         3.2892   -1.7622    4.4238 H         1 <0>         0.1171 
      38 H9        -0.9468   -1.0375    3.9739 H         1 <0>         0.1185 
      39 H10       -0.2637    1.8576    4.6288 H         1 <0>         0.0777 
      40 H11       -0.1985    1.1124    3.0169 H         1 <0>         0.0803 
      41 H12       -1.7587    1.3009    3.8462 H         1 <0>         0.0842 
      42 H13       -0.6155   -2.1795    6.4295 H         1 <0>         0.4245 
      43 H14       -1.9839    0.7359    8.1778 H         1 <0>         0.1486 
      44 H15       -3.0640    0.6134   10.4088 H         1 <0>         0.1348 
      45 H16       -3.4901   -1.5927   11.4662 H         1 <0>         0.1332 
      46 H17       -2.9311   -3.6780   10.2596 H         1 <0>         0.1296 
      47 H18       -2.3172   -5.1722    9.1801 H         1 <0>         0.4054 
      48 H19       -0.4665   -6.0479    7.0659 H         1 <0>         0.1035 
      49 H20       -2.1662   -6.4583    6.7494 H         1 <0>         0.0890 
      50 H21       -1.8968   -6.6193   10.4130 H         1 <0>         0.1520 
      51 H22       -1.3889   -9.2667   11.1509 H         1 <0>         0.1526 
      52 H23       -0.6887  -10.4727    8.9500 H         1 <0>         0.2068 
@<TRIPOS>BOND
       1        1        2 1        
       2        1       30 1        
       3        1       31 1        
       4        1       32 1        
       5        2        3 1        
       6        2       33 1        
       7        2       34 1        
       8        3        4 2        
       9        3        5 am       
      10        5        6 1        
      11        5       35 1        
      12        6        7 1        
      13        6       36 1        
      14        6       37 1        
      15        7        8 2        
      16        7        9 1        
      17        9       10 1        
      18       10       11 1        
      19       10       12 1        
      20       10       38 1        
      21       11       39 1        
      22       11       40 1        
      23       11       41 1        
      24       12       13 2        
      25       12       14 am       
      26       14       15 1        
      27       14       42 1        
      28       15       20 ar       
      29       15       16 ar       
      30       16       17 ar       
      31       16       43 1        
      32       17       18 ar       
      33       17       44 1        
      34       18       19 ar       
      35       18       45 1        
      36       19       20 ar       
      37       19       46 1        
      38       20       21 1        
      39       21       22 2        
      40       21       23 am       
      41       23       24 1        
      42       23       47 1        
      43       24       25 1        
      44       24       48 1        
      45       24       49 1        
      46       25       29 1        
      47       25       26 2        
      48       26       27 1        
      49       26       50 1        
      50       27       28 2        
      51       27       51 1        
      52       28       29 1        
      53       28       52 1        

