#        1GCZ_R01_S0001_C0000_L00017_S0001_C0040_G0010_E0001.mol2
#        Tue Jun  6 10:01:33 2017
#        Descriptor:     13     3    12     8     8    15
#        Energy - RMSD - RMSD MassCentre:     -70.6811    999.9999    999.9999
#        Receptor:       1  Surface Point:     1  Conformer:     0
#        Ligand:        17  Surface Point:     1  Conformer:    40
#        BUDE Formal Charge: 0
#        ATOM Count: 52
#        Heavy ATOM Count: 29
@<TRIPOS>MOLECULE
ZINC61282001_1GCZ_R01_S0001_C0000_L00017_S0001_C0040_G0010_E0001
 52 53 0 0 0
SMALL
USER_CHARGES
@<TRIPOS>ATOM
       1 C1        -1.2954   -1.0087   11.0702 C.3       1 <0>        -0.1391 
       2 C2        -2.4200   -0.9970   10.0390 C.3       1 <0>        -0.1418 
       3 C3        -1.8689   -1.3927    8.6900 C.2       1 <0>         0.5169 
       4 O1        -1.9367   -0.6102    7.7434 O.2       1 <0>        -0.5335 
       5 N1        -1.3100   -2.5883    8.5252 N.am      1 <0>        -0.7285 
       6 C4        -0.7736   -2.9735    7.2119 C.3       1 <0>         0.1288 
       7 C5         0.5503   -2.2826    6.9877 C.2       1 <0>         0.4630 
       8 O2         0.6625   -1.4728    6.1162 O.2       1 <0>        -0.4988 
       9 O3         1.6077   -2.5799    7.7724 O.3       1 <0>        -0.3175 
      10 C6         2.8407   -1.9002    7.5224 C.3       1 <0>         0.0731 
      11 C7         3.9165   -2.4323    8.4648 C.3       1 <0>        -0.1692 
      12 C8         2.6549   -0.4200    7.7566 C.2       1 <0>         0.5202 
      13 O4         3.3758    0.1718    8.5584 O.2       1 <0>        -0.4963 
      14 N2         1.7111    0.2441    7.0956 N.am      1 <0>        -0.6538 
      15 C9         1.5356    1.6310    7.3141 C.ar      1 <0>         0.2101 
      16 C10        1.9900    2.2448    8.4874 C.ar      1 <0>        -0.1321 
      17 C11        1.7503    3.6103    8.6828 C.ar      1 <0>        -0.0675 
      18 C12        1.0638    4.3524    7.7133 C.ar      1 <0>        -0.1401 
      19 C13        0.6428    3.7422    6.5257 C.ar      1 <0>        -0.0656 
      20 C14        0.8657    2.3735    6.3345 C.ar      1 <0>        -0.1718 
      21 C15        0.4167    1.6314    5.1352 C.2       1 <0>         0.5702 
      22 O5         0.6389    0.4254    5.0398 O.2       1 <0>        -0.5422 
      23 N3        -0.2267    2.2690    4.1613 N.am      1 <0>        -0.7214 
      24 C16       -0.6725    1.5320    2.9702 C.3       1 <0>         0.2043 
      25 C17       -1.8722    0.6856    3.3230 C.2       1 <0>        -0.0464 
      26 C18       -2.4620    0.6085    4.5237 C.2       1 <0>        -0.1782 
      27 C19       -3.5672   -0.3497    4.2977 C.2       1 <0>        -0.2183 
      28 C20       -3.4619   -0.6737    3.0061 C.2       1 <0>        -0.0240 
      29 O6        -2.4202   -0.0803    2.2967 O.3       1 <0>        -0.1712 
      30 H1        -0.5295   -0.2930   10.7788 H         1 <0>         0.0628 
      31 H2        -1.6950   -0.7365   12.0449 H         1 <0>         0.0628 
      32 H3        -0.8610   -2.0049   11.1209 H         1 <0>         0.0640 
      33 H4        -2.8459    0.0023    9.9772 H         1 <0>         0.0966 
      34 H5        -3.1925   -1.7035   10.3359 H         1 <0>         0.0966 
      35 H6        -1.2539   -3.2318    9.3017 H         1 <0>         0.4131 
      36 H7        -0.6293   -4.0514    7.1804 H         1 <0>         0.1171 
      37 H8        -1.4729   -2.6776    6.4328 H         1 <0>         0.1171 
      38 H9         3.1455   -2.0680    6.4914 H         1 <0>         0.1185 
      39 H10        3.6049   -2.2751    9.4953 H         1 <0>         0.0777 
      40 H11        4.0597   -3.4959    8.2868 H         1 <0>         0.0803 
      41 H12        4.8502   -1.9045    8.2832 H         1 <0>         0.0842 
      42 H13        1.1191   -0.2418    6.4373 H         1 <0>         0.4245 
      43 H14        2.5146    1.6691    9.2355 H         1 <0>         0.1486 
      44 H15        2.0892    4.0882    9.5900 H         1 <0>         0.1348 
      45 H16        0.8631    5.4011    7.8754 H         1 <0>         0.1332 
      46 H17        0.1478    4.3278    5.7651 H         1 <0>         0.1296 
      47 H18       -0.4085    3.2594    4.2407 H         1 <0>         0.4054 
      48 H19        0.1333    0.8914    2.6181 H         1 <0>         0.1035 
      49 H20       -0.9435    2.2380    2.1880 H         1 <0>         0.0890 
      50 H21       -2.2159    1.1096    5.4482 H         1 <0>         0.1520 
      51 H22       -4.2978   -0.7026    5.0103 H         1 <0>         0.1526 
      52 H23       -4.1194   -1.3620    2.4959 H         1 <0>         0.2068 
@<TRIPOS>BOND
       1        1        2 1        
       2        1       30 1        
       3        1       31 1        
       4        1       32 1        
       5        2        3 1        
       6        2       33 1        
       7        2       34 1        
       8        3        4 2        
       9        3        5 am       
      10        5        6 1        
      11        5       35 1        
      12        6        7 1        
      13        6       36 1        
      14        6       37 1        
      15        7        8 2        
      16        7        9 1        
      17        9       10 1        
      18       10       11 1        
      19       10       12 1        
      20       10       38 1        
      21       11       39 1        
      22       11       40 1        
      23       11       41 1        
      24       12       13 2        
      25       12       14 am       
      26       14       15 1        
      27       14       42 1        
      28       15       20 ar       
      29       15       16 ar       
      30       16       17 ar       
      31       16       43 1        
      32       17       18 ar       
      33       17       44 1        
      34       18       19 ar       
      35       18       45 1        
      36       19       20 ar       
      37       19       46 1        
      38       20       21 1        
      39       21       22 2        
      40       21       23 am       
      41       23       24 1        
      42       23       47 1        
      43       24       25 1        
      44       24       48 1        
      45       24       49 1        
      46       25       29 1        
      47       25       26 2        
      48       26       27 1        
      49       26       50 1        
      50       27       28 2        
      51       27       51 1        
      52       28       29 1        
      53       28       52 1        

