#        1GCZ_R01_S0001_C0000_L00017_S0001_C0040_G0010_E0001.mol2
#        Tue Jun  6 14:19:35 2017
#        Descriptor:     11     3    12     8     7    15
#        Energy - RMSD - RMSD MassCentre:     -67.3865    999.9999    999.9999
#        Receptor:       1  Surface Point:     1  Conformer:     0
#        Ligand:        17  Surface Point:     1  Conformer:    40
#        BUDE Formal Charge: 0
#        ATOM Count: 52
#        Heavy ATOM Count: 29
@<TRIPOS>MOLECULE
ZINC61282001_1GCZ_R01_S0001_C0000_L00017_S0001_C0040_G0010_E0001
 52 53 0 0 0
SMALL
USER_CHARGES
@<TRIPOS>ATOM
       1 C1        -2.4819   -2.2460   10.3986 C.3       1 <0>        -0.1391 
       2 C2        -3.2717   -1.8908    9.1422 C.3       1 <0>        -0.1418 
       3 C3        -2.4438   -2.2118    7.9208 C.2       1 <0>         0.5169 
       4 O1        -2.1346   -1.3182    7.1341 O.2       1 <0>        -0.5335 
       5 N1        -2.0489   -3.4617    7.6954 N.am      1 <0>        -0.7285 
       6 C4        -1.2430   -3.7742    6.5064 C.3       1 <0>         0.1288 
       7 C5         0.1810   -3.3257    6.7325 C.2       1 <0>         0.4630 
       8 O2         0.6453   -2.4493    6.0660 O.2       1 <0>        -0.4988 
       9 O3         0.9301   -3.9152    7.6885 O.3       1 <0>        -0.3175 
      10 C6         2.2730   -3.4570    7.8659 C.3       1 <0>         0.0731 
      11 C7         2.9614   -4.2984    8.9368 C.3       1 <0>        -0.1692 
      12 C8         2.2572   -2.0099    8.2970 C.2       1 <0>         0.5202 
      13 O4         2.8162   -1.6717    9.3391 O.2       1 <0>        -0.4963 
      14 N2         1.6384   -1.1004    7.5495 N.am      1 <0>        -0.6538 
      15 C9         1.6227    0.2559    7.9522 C.ar      1 <0>         0.2101 
      16 C10        1.8315    0.6197    9.2878 C.ar      1 <0>        -0.1321 
      17 C11        1.7576    1.9702    9.6491 C.ar      1 <0>        -0.0675 
      18 C12        1.4784    2.9453    8.6830 C.ar      1 <0>        -0.1401 
      19 C13        1.3058    2.5805    7.3425 C.ar      1 <0>        -0.0656 
      20 C14        1.3621    1.2294    6.9805 C.ar      1 <0>        -0.1718 
      21 C15        1.1460    0.7429    5.5995 C.2       1 <0>         0.5702 
      22 O5         1.2004   -0.4616    5.3566 O.2       1 <0>        -0.5422 
      23 N3         0.8933    1.6086    4.6219 N.am      1 <0>        -0.7214 
      24 C16        0.6788    1.1254    3.2503 C.3       1 <0>         0.2043 
      25 C17       -0.6855    0.4857    3.1506 C.2       1 <0>        -0.0464 
      26 C18       -1.5817    0.3724    4.1402 C.2       1 <0>        -0.1782 
      27 C19       -2.7169   -0.3215    3.4918 C.2       1 <0>        -0.2183 
      28 C20       -2.3176   -0.4949    2.2289 C.2       1 <0>        -0.0240 
      29 O6        -1.0459   -0.0267    1.9065 O.3       1 <0>        -0.1712 
      30 H1        -1.5665   -1.6585   10.4290 H         1 <0>         0.0628 
      31 H2        -3.0834   -2.0271   11.2783 H         1 <0>         0.0628 
      32 H3        -2.2333   -3.3050   10.3827 H         1 <0>         0.0640 
      33 H4        -3.5087   -0.8290    9.1500 H         1 <0>         0.0966 
      34 H5        -4.1932   -2.4687    9.1170 H         1 <0>         0.0966 
      35 H6        -2.3023   -4.1963    8.3407 H         1 <0>         0.4131 
      36 H7        -1.2606   -4.8472    6.3273 H         1 <0>         0.1171 
      37 H8        -1.6533   -3.2551    5.6428 H         1 <0>         0.1171 
      38 H9         2.8153   -3.5491    6.9272 H         1 <0>         0.1185 
      39 H10        2.4111   -4.2153    9.8717 H         1 <0>         0.0777 
      40 H11        2.9845   -5.3389    8.6202 H         1 <0>         0.0803 
      41 H12        3.9783   -3.9397    9.0809 H         1 <0>         0.0842 
      42 H13        1.1793   -1.3781    6.6939 H         1 <0>         0.4245 
      43 H14        2.0415   -0.1347   10.0315 H         1 <0>         0.1486 
      44 H15        1.9077    2.2572   10.6794 H         1 <0>         0.1348 
      45 H16        1.4026    3.9842    8.9680 H         1 <0>         0.1332 
      46 H17        1.1288    3.3404    6.5957 H         1 <0>         0.1296 
      47 H18        0.8489    2.5975    4.8225 H         1 <0>         0.4054 
      48 H19        1.4429    0.3923    3.0009 H         1 <0>         0.1035 
      49 H20        0.7388    1.9626    2.5580 H         1 <0>         0.0890 
      50 H21       -1.5210    0.6974    5.1684 H         1 <0>         0.1520 
      51 H22       -3.6573   -0.6153    3.9340 H         1 <0>         0.1526 
      52 H23       -2.9096   -0.9757    1.4642 H         1 <0>         0.2068 
@<TRIPOS>BOND
       1        1        2 1        
       2        1       30 1        
       3        1       31 1        
       4        1       32 1        
       5        2        3 1        
       6        2       33 1        
       7        2       34 1        
       8        3        4 2        
       9        3        5 am       
      10        5        6 1        
      11        5       35 1        
      12        6        7 1        
      13        6       36 1        
      14        6       37 1        
      15        7        8 2        
      16        7        9 1        
      17        9       10 1        
      18       10       11 1        
      19       10       12 1        
      20       10       38 1        
      21       11       39 1        
      22       11       40 1        
      23       11       41 1        
      24       12       13 2        
      25       12       14 am       
      26       14       15 1        
      27       14       42 1        
      28       15       20 ar       
      29       15       16 ar       
      30       16       17 ar       
      31       16       43 1        
      32       17       18 ar       
      33       17       44 1        
      34       18       19 ar       
      35       18       45 1        
      36       19       20 ar       
      37       19       46 1        
      38       20       21 1        
      39       21       22 2        
      40       21       23 am       
      41       23       24 1        
      42       23       47 1        
      43       24       25 1        
      44       24       48 1        
      45       24       49 1        
      46       25       29 1        
      47       25       26 2        
      48       26       27 1        
      49       26       50 1        
      50       27       28 2        
      51       27       51 1        
      52       28       29 1        
      53       28       52 1        

