#        1GCZ_R01_S0001_C0000_L00017_S0001_C0041_G0010_E0001.mol2
#        Tue Jun  6 10:01:34 2017
#        Descriptor:     19    19    26    10     9    14
#        Energy - RMSD - RMSD MassCentre:     -62.1889    999.9999    999.9999
#        Receptor:       1  Surface Point:     1  Conformer:     0
#        Ligand:        17  Surface Point:     1  Conformer:    41
#        BUDE Formal Charge: 0
#        ATOM Count: 52
#        Heavy ATOM Count: 29
@<TRIPOS>MOLECULE
ZINC61282001_1GCZ_R01_S0001_C0000_L00017_S0001_C0041_G0010_E0001
 52 53 0 0 0
SMALL
USER_CHARGES
@<TRIPOS>ATOM
       1 C1        -1.5778    1.2920    1.3571 C.3       1 <0>        -0.1391 
       2 C2        -0.1239    1.4656    1.7870 C.3       1 <0>        -0.1418 
       3 C3         0.2847    0.3020    2.6584 C.2       1 <0>         0.5169 
       4 O1        -0.5228   -0.5903    2.9126 O.2       1 <0>        -0.5335 
       5 N1         1.5183    0.2421    3.1516 N.am      1 <0>        -0.7285 
       6 C4         1.9160   -0.8906    3.9999 C.3       1 <0>         0.1288 
       7 C5         1.3327   -0.7128    5.3814 C.2       1 <0>         0.4630 
       8 O2         2.0548   -0.5454    6.3187 O.2       1 <0>        -0.4988 
       9 O3        -0.0053   -0.7428    5.5575 O.3       1 <0>        -0.3175 
      10 C6        -0.5113   -0.5698    6.8837 C.3       1 <0>         0.0731 
      11 C7        -2.0308   -0.7099    6.8719 C.3       1 <0>        -0.1692 
      12 C8        -0.1372    0.8031    7.3892 C.2       1 <0>         0.5202 
      13 O4        -1.0119    1.5759    7.7770 O.2       1 <0>        -0.4963 
      14 N2         1.1389    1.1769    7.4148 N.am      1 <0>        -0.6538 
      15 C9         1.4910    2.4630    7.8880 C.ar      1 <0>         0.2101 
      16 C10        0.5600    3.5082    7.9124 C.ar      1 <0>        -0.1321 
      17 C11        0.9663    4.7772    8.3421 C.ar      1 <0>        -0.0675 
      18 C12        2.2903    4.9962    8.7436 C.ar      1 <0>        -0.1401 
      19 C13        3.2086    3.9395    8.7515 C.ar      1 <0>        -0.0656 
      20 C14        2.8103    2.6735    8.3063 C.ar      1 <0>        -0.1718 
      21 C15        3.7201    1.5084    8.2337 C.2       1 <0>         0.5702 
      22 O5         3.3025    0.4272    7.8218 O.2       1 <0>        -0.5422 
      23 N3         4.9887    1.6311    8.6140 N.am      1 <0>        -0.7214 
      24 C16        5.8922    0.4738    8.5420 C.3       1 <0>         0.2043 
      25 C17        6.2615    0.2137    7.1011 C.2       1 <0>        -0.0464 
      26 C18        5.7644   -0.7533    6.3180 C.2       1 <0>        -0.1782 
      27 C19        6.4656   -0.5419    5.0317 C.2       1 <0>        -0.2183 
      28 C20        7.2499    0.5160    5.2554 C.2       1 <0>        -0.0240 
      29 O6         7.2034    1.0685    6.5333 O.3       1 <0>        -0.1712 
      30 H1        -2.2158    1.2707    2.2382 H         1 <0>         0.0628 
      31 H2        -1.8681    2.1236    0.7183 H         1 <0>         0.0628 
      32 H3        -1.6842    0.3584    0.8089 H         1 <0>         0.0640 
      33 H4        -0.0189    2.3921    2.3476 H         1 <0>         0.0966 
      34 H5         0.5138    1.4996    0.9061 H         1 <0>         0.0966 
      35 H6         2.1822    0.9743    2.9436 H         1 <0>         0.4131 
      36 H7         1.5448   -1.8169    3.5667 H         1 <0>         0.1171 
      37 H8         3.0012   -0.9304    4.0675 H         1 <0>         0.1171 
      38 H9        -0.0818   -1.3258    7.5379 H         1 <0>         0.1185 
      39 H10       -2.4582    0.0385    6.2079 H         1 <0>         0.0777 
      40 H11       -2.2999   -1.7036    6.5204 H         1 <0>         0.0803 
      41 H12       -2.4157   -0.5642    7.8790 H         1 <0>         0.0842 
      42 H13        1.8571    0.5423    7.0963 H         1 <0>         0.4245 
      43 H14       -0.4588    3.3377    7.5975 H         1 <0>         0.1486 
      44 H15        0.2560    5.5905    8.3540 H         1 <0>         0.1348 
      45 H16        2.6059    5.9806    9.0559 H         1 <0>         0.1332 
      46 H17        4.2179    4.1054    9.0983 H         1 <0>         0.1296 
      47 H18        5.3305    2.5193    8.9522 H         1 <0>         0.4054 
      48 H19        5.3933   -0.4013    8.9529 H         1 <0>         0.1035 
      49 H20        6.7928    0.6814    9.1159 H         1 <0>         0.0890 
      50 H21        5.0315   -1.5146    6.5405 H         1 <0>         0.1520 
      51 H22        6.3632   -1.1074    4.1175 H         1 <0>         0.1526 
      52 H23        7.9101    0.9504    4.5193 H         1 <0>         0.2068 
@<TRIPOS>BOND
       1        1        2 1        
       2        1       30 1        
       3        1       31 1        
       4        1       32 1        
       5        2        3 1        
       6        2       33 1        
       7        2       34 1        
       8        3        4 2        
       9        3        5 am       
      10        5        6 1        
      11        5       35 1        
      12        6        7 1        
      13        6       36 1        
      14        6       37 1        
      15        7        8 2        
      16        7        9 1        
      17        9       10 1        
      18       10       11 1        
      19       10       12 1        
      20       10       38 1        
      21       11       39 1        
      22       11       40 1        
      23       11       41 1        
      24       12       13 2        
      25       12       14 am       
      26       14       15 1        
      27       14       42 1        
      28       15       20 ar       
      29       15       16 ar       
      30       16       17 ar       
      31       16       43 1        
      32       17       18 ar       
      33       17       44 1        
      34       18       19 ar       
      35       18       45 1        
      36       19       20 ar       
      37       19       46 1        
      38       20       21 1        
      39       21       22 2        
      40       21       23 am       
      41       23       24 1        
      42       23       47 1        
      43       24       25 1        
      44       24       48 1        
      45       24       49 1        
      46       25       29 1        
      47       25       26 2        
      48       26       27 1        
      49       26       50 1        
      50       27       28 2        
      51       27       51 1        
      52       28       29 1        
      53       28       52 1        

