#        1GCZ_R01_S0001_C0000_L00017_S0001_C0041_G0010_E0001.mol2
#        Tue Jun  6 14:19:37 2017
#        Descriptor:      8    26    27    11    10    14
#        Energy - RMSD - RMSD MassCentre:     -64.1314    999.9999    999.9999
#        Receptor:       1  Surface Point:     1  Conformer:     0
#        Ligand:        17  Surface Point:     1  Conformer:    41
#        BUDE Formal Charge: 0
#        ATOM Count: 52
#        Heavy ATOM Count: 29
@<TRIPOS>MOLECULE
ZINC61282001_1GCZ_R01_S0001_C0000_L00017_S0001_C0041_G0010_E0001
 52 53 0 0 0
SMALL
USER_CHARGES
@<TRIPOS>ATOM
       1 C1         8.5735    0.3350    5.2214 C.3       1 <0>        -0.1391 
       2 C2         7.6272    1.5242    5.0836 C.3       1 <0>        -0.1418 
       3 C3         6.7894    1.6472    6.3338 C.2       1 <0>         0.5169 
       4 O1         6.9395    0.8480    7.2568 O.2       1 <0>        -0.5335 
       5 N1         5.8887    2.6202    6.4371 N.am      1 <0>        -0.7285 
       6 C4         5.0731    2.7399    7.6542 C.3       1 <0>         0.1288 
       7 C5         3.9897    1.6881    7.6385 C.2       1 <0>         0.4630 
       8 O2         2.8416    2.0128    7.5709 O.2       1 <0>        -0.4988 
       9 O3         4.3183    0.3803    7.7009 O.3       1 <0>        -0.3175 
      10 C6         3.2583   -0.5793    7.6831 C.3       1 <0>         0.0731 
      11 C7         3.8382   -1.9825    7.8354 C.3       1 <0>        -0.1692 
      12 C8         2.5148   -0.4824    6.3723 C.2       1 <0>         0.5202 
      13 O4         2.3971   -1.4755    5.6564 O.2       1 <0>        -0.4963 
      14 N2         1.9872    0.6776    5.9916 N.am      1 <0>        -0.6538 
      15 C9         1.2905    0.7700    4.7636 C.ar      1 <0>         0.2101 
      16 C10        1.5020   -0.1577    3.7367 C.ar      1 <0>        -0.1321 
      17 C11        0.8274    0.0018    2.5204 C.ar      1 <0>        -0.0675 
      18 C12       -0.0498    1.0781    2.3353 C.ar      1 <0>        -0.1401 
      19 C13       -0.2854    1.9828    3.3774 C.ar      1 <0>        -0.0656 
      20 C14        0.4003    1.8362    4.5890 C.ar      1 <0>        -0.1718 
      21 C15        0.2533    2.7676    5.7299 C.2       1 <0>         0.5702 
      22 O5         0.8965    2.5818    6.7617 O.2       1 <0>        -0.5422 
      23 N3        -0.5743    3.8047    5.6387 N.am      1 <0>        -0.7214 
      24 C16       -0.7204    4.7297    6.7718 C.3       1 <0>         0.2043 
      25 C17        0.5045    5.6078    6.8646 C.2       1 <0>        -0.0464 
      26 C18        1.5088    5.4767    7.7421 C.2       1 <0>        -0.1782 
      27 C19        2.4216    6.5843    7.3806 C.2       1 <0>        -0.2183 
      28 C20        1.8211    7.1807    6.3472 C.2       1 <0>        -0.0240 
      29 O6         0.5995    6.6474    5.9424 O.3       1 <0>        -0.1712 
      30 H1         7.9933   -0.5767    5.3479 H         1 <0>         0.0628 
      31 H2         9.1864    0.2544    4.3260 H         1 <0>         0.0628 
      32 H3         9.2142    0.4809    6.0884 H         1 <0>         0.0640 
      33 H4         6.9762    1.3728    4.2250 H         1 <0>         0.0966 
      34 H5         8.2061    2.4348    4.9446 H         1 <0>         0.0966 
      35 H6         5.7645    3.2769    5.6799 H         1 <0>         0.4131 
      36 H7         5.7035    2.5973    8.5294 H         1 <0>         0.1171 
      37 H8         4.6184    3.7276    7.6911 H         1 <0>         0.1171 
      38 H9         2.5726   -0.3784    8.5037 H         1 <0>         0.1185 
      39 H10        4.5330   -2.1774    7.0211 H         1 <0>         0.0777 
      40 H11        4.3625   -2.0562    8.7858 H         1 <0>         0.0803 
      41 H12        3.0321   -2.7124    7.8076 H         1 <0>         0.0842 
      42 H13        2.0840    1.4931    6.5795 H         1 <0>         0.4245 
      43 H14        2.1827   -0.9836    3.8804 H         1 <0>         0.1486 
      44 H15        0.9933   -0.7043    1.7203 H         1 <0>         0.1348 
      45 H16       -0.5538    1.2097    1.3893 H         1 <0>         0.1332 
      46 H17       -0.9917    2.7886    3.2420 H         1 <0>         0.1296 
      47 H18       -1.1021    3.9562    4.7909 H         1 <0>         0.4054 
      48 H19       -0.8298    4.1602    7.6923 H         1 <0>         0.1035 
      49 H20       -1.6014    5.3500    6.6216 H         1 <0>         0.0890 
      50 H21        1.6475    4.7519    8.5305 H         1 <0>         0.1520 
      51 H22        3.3623    6.8480    7.8406 H         1 <0>         0.1526 
      52 H23        2.2171    8.0400    5.8265 H         1 <0>         0.2068 
@<TRIPOS>BOND
       1        1        2 1        
       2        1       30 1        
       3        1       31 1        
       4        1       32 1        
       5        2        3 1        
       6        2       33 1        
       7        2       34 1        
       8        3        4 2        
       9        3        5 am       
      10        5        6 1        
      11        5       35 1        
      12        6        7 1        
      13        6       36 1        
      14        6       37 1        
      15        7        8 2        
      16        7        9 1        
      17        9       10 1        
      18       10       11 1        
      19       10       12 1        
      20       10       38 1        
      21       11       39 1        
      22       11       40 1        
      23       11       41 1        
      24       12       13 2        
      25       12       14 am       
      26       14       15 1        
      27       14       42 1        
      28       15       20 ar       
      29       15       16 ar       
      30       16       17 ar       
      31       16       43 1        
      32       17       18 ar       
      33       17       44 1        
      34       18       19 ar       
      35       18       45 1        
      36       19       20 ar       
      37       19       46 1        
      38       20       21 1        
      39       21       22 2        
      40       21       23 am       
      41       23       24 1        
      42       23       47 1        
      43       24       25 1        
      44       24       48 1        
      45       24       49 1        
      46       25       29 1        
      47       25       26 2        
      48       26       27 1        
      49       26       50 1        
      50       27       28 2        
      51       27       51 1        
      52       28       29 1        
      53       28       52 1        

