#        1GCZ_R01_S0001_C0000_L00017_S0001_C0042_G0010_E0001.mol2
#        Tue Jun  6 10:01:35 2017
#        Descriptor:     16    15    34     8    10    15
#        Energy - RMSD - RMSD MassCentre:     -62.9140    999.9999    999.9999
#        Receptor:       1  Surface Point:     1  Conformer:     0
#        Ligand:        17  Surface Point:     1  Conformer:    42
#        BUDE Formal Charge: 0
#        ATOM Count: 52
#        Heavy ATOM Count: 29
@<TRIPOS>MOLECULE
ZINC61282001_1GCZ_R01_S0001_C0000_L00017_S0001_C0042_G0010_E0001
 52 53 0 0 0
SMALL
USER_CHARGES
@<TRIPOS>ATOM
       1 C1         3.2478    1.9158    7.9855 C.3       1 <0>        -0.1391 
       2 C2         3.6969    1.9649    6.5279 C.3       1 <0>        -0.1418 
       3 C3         3.2576    0.7034    5.8239 C.2       1 <0>         0.5169 
       4 O1         2.6368   -0.1614    6.4402 O.2       1 <0>        -0.5335 
       5 N1         3.5420    0.5271    4.5367 N.am      1 <0>        -0.7285 
       6 C4         3.1143   -0.7009    3.8515 C.3       1 <0>         0.1288 
       7 C5         1.6365   -0.6205    3.5520 C.2       1 <0>         0.4630 
       8 O2         1.2566   -0.5835    2.4196 O.2       1 <0>        -0.4988 
       9 O3         0.7438   -0.5904    4.5641 O.3       1 <0>        -0.3175 
      10 C6        -0.6449   -0.5140    4.2316 C.3       1 <0>         0.0731 
      11 C7        -0.9087    0.7599    3.4341 C.3       1 <0>        -0.1692 
      12 C8        -1.4646   -0.4916    5.4997 C.2       1 <0>         0.5202 
      13 O4        -2.3118   -1.3604    5.7006 O.2       1 <0>        -0.4963 
      14 N2        -1.2705    0.4681    6.3996 N.am      1 <0>        -0.6538 
      15 C9        -2.0379    0.4906    7.5882 C.ar      1 <0>         0.2101 
      16 C10       -2.7120   -0.6504    8.0393 C.ar      1 <0>        -0.1321 
      17 C11       -3.4998   -0.5685    9.1937 C.ar      1 <0>        -0.0675 
      18 C12       -3.6103    0.6427    9.8886 C.ar      1 <0>        -0.1401 
      19 C13       -2.9060    1.7718    9.4539 C.ar      1 <0>        -0.0656 
      20 C14       -2.1309    1.6979    8.2905 C.ar      1 <0>        -0.1718 
      21 C15       -1.3893    2.8485    7.7274 C.2       1 <0>         0.5702 
      22 O5        -0.7360    2.7123    6.6941 O.2       1 <0>        -0.5422 
      23 N3        -1.4297    4.0288    8.3391 N.am      1 <0>        -0.7214 
      24 C16       -0.6932    5.1715    7.7798 C.3       1 <0>         0.2043 
      25 C17       -0.4790    6.2071    8.8575 C.2       1 <0>        -0.0464 
      26 C18       -0.8795    6.1179   10.1331 C.2       1 <0>        -0.1782 
      27 C19       -0.4095    7.3900   10.7259 C.2       1 <0>        -0.2183 
      28 C20        0.1999    8.0173    9.7163 C.2       1 <0>        -0.0240 
      29 O6         0.2088    7.3607    8.4878 O.3       1 <0>        -0.1712 
      30 H1         3.7063    1.0602    8.4769 H         1 <0>         0.0628 
      31 H2         3.5528    2.8307    8.4893 H         1 <0>         0.0628 
      32 H3         2.1648    1.8215    8.0275 H         1 <0>         0.0640 
      33 H4         4.7811    2.0450    6.4842 H         1 <0>         0.0966 
      34 H5         3.2489    2.8273    6.0387 H         1 <0>         0.0966 
      35 H6         4.0518    1.2365    4.0297 H         1 <0>         0.4131 
      36 H7         3.6670   -0.8089    2.9206 H         1 <0>         0.1171 
      37 H8         3.3080   -1.5599    4.4905 H         1 <0>         0.1171 
      38 H9        -0.9240   -1.3803    3.6354 H         1 <0>         0.1185 
      39 H10       -0.6176    1.6248    4.0265 H         1 <0>         0.0777 
      40 H11       -0.3283    0.7377    2.5141 H         1 <0>         0.0803 
      41 H12       -1.9679    0.8239    3.1938 H         1 <0>         0.0842 
      42 H13       -0.5749    1.1815    6.2345 H         1 <0>         0.4245 
      43 H14       -2.6289   -1.5817    7.4987 H         1 <0>         0.1486 
      44 H15       -4.0306   -1.4422    9.5419 H         1 <0>         0.1348 
      45 H16       -4.2344    0.7080   10.7676 H         1 <0>         0.1332 
      46 H17       -2.9646    2.6925   10.0152 H         1 <0>         0.1296 
      47 H18       -1.9664    4.1395    9.1875 H         1 <0>         0.4054 
      48 H19       -1.2668    5.6082    6.9650 H         1 <0>         0.1035 
      49 H20        0.2703    4.8326    7.4049 H         1 <0>         0.0890 
      50 H21       -1.4150    5.3260   10.6356 H         1 <0>         0.1520 
      51 H22       -0.5248    7.7323   11.7437 H         1 <0>         0.1526 
      52 H23        0.6670    8.9877    9.7962 H         1 <0>         0.2068 
@<TRIPOS>BOND
       1        1        2 1        
       2        1       30 1        
       3        1       31 1        
       4        1       32 1        
       5        2        3 1        
       6        2       33 1        
       7        2       34 1        
       8        3        4 2        
       9        3        5 am       
      10        5        6 1        
      11        5       35 1        
      12        6        7 1        
      13        6       36 1        
      14        6       37 1        
      15        7        8 2        
      16        7        9 1        
      17        9       10 1        
      18       10       11 1        
      19       10       12 1        
      20       10       38 1        
      21       11       39 1        
      22       11       40 1        
      23       11       41 1        
      24       12       13 2        
      25       12       14 am       
      26       14       15 1        
      27       14       42 1        
      28       15       20 ar       
      29       15       16 ar       
      30       16       17 ar       
      31       16       43 1        
      32       17       18 ar       
      33       17       44 1        
      34       18       19 ar       
      35       18       45 1        
      36       19       20 ar       
      37       19       46 1        
      38       20       21 1        
      39       21       22 2        
      40       21       23 am       
      41       23       24 1        
      42       23       47 1        
      43       24       25 1        
      44       24       48 1        
      45       24       49 1        
      46       25       29 1        
      47       25       26 2        
      48       26       27 1        
      49       26       50 1        
      50       27       28 2        
      51       27       51 1        
      52       28       29 1        
      53       28       52 1        

