#        1GCZ_R01_S0001_C0000_L00017_S0001_C0042_G0010_E0001.mol2
#        Tue Jun  6 14:19:39 2017
#        Descriptor:     16    14    34     8    10    15
#        Energy - RMSD - RMSD MassCentre:     -61.8884    999.9999    999.9999
#        Receptor:       1  Surface Point:     1  Conformer:     0
#        Ligand:        17  Surface Point:     1  Conformer:    42
#        BUDE Formal Charge: 0
#        ATOM Count: 52
#        Heavy ATOM Count: 29
@<TRIPOS>MOLECULE
ZINC61282001_1GCZ_R01_S0001_C0000_L00017_S0001_C0042_G0010_E0001
 52 53 0 0 0
SMALL
USER_CHARGES
@<TRIPOS>ATOM
       1 C1         3.3647    1.8733    7.4355 C.3       1 <0>        -0.1391 
       2 C2         3.5701    2.0111    5.9297 C.3       1 <0>        -0.1418 
       3 C3         3.0156    0.7914    5.2332 C.2       1 <0>         0.5169 
       4 O1         2.4995   -0.1114    5.8900 O.2       1 <0>        -0.5335 
       5 N1         3.0854    0.6933    3.9087 N.am      1 <0>        -0.7285 
       6 C4         2.5456   -0.4939    3.2307 C.3       1 <0>         0.1288 
       7 C5         1.0391   -0.4030    3.1817 C.2       1 <0>         0.4630 
       8 O2         0.4798   -0.3008    2.1307 O.2       1 <0>        -0.4988 
       9 O3         0.3237   -0.4375    4.3259 O.3       1 <0>        -0.3175 
      10 C6        -1.1003   -0.3483    4.2296 C.3       1 <0>         0.0731 
      11 C7        -1.4844    0.9694    3.5629 C.3       1 <0>        -0.1692 
      12 C8        -1.7019   -0.4052    5.6135 C.2       1 <0>         0.5202 
      13 O4        -2.5092   -1.2885    5.8980 O.2       1 <0>        -0.4963 
      14 N2        -1.3589    0.5003    6.5251 N.am      1 <0>        -0.6538 
      15 C9        -1.9219    0.4484    7.8221 C.ar      1 <0>         0.2101 
      16 C10       -2.5189   -0.7206    8.3086 C.ar      1 <0>        -0.1321 
      17 C11       -3.1074   -0.7113    9.5789 C.ar      1 <0>        -0.0675 
      18 C12       -3.0971    0.4560   10.3532 C.ar      1 <0>        -0.1401 
      19 C13       -2.4677    1.6122    9.8772 C.ar      1 <0>        -0.0656 
      20 C14       -1.8932    1.6114    8.6007 C.ar      1 <0>        -0.1718 
      21 C15       -1.2478    2.7970    7.9935 C.2       1 <0>         0.5702 
      22 O5        -0.7726    2.7256    6.8612 O.2       1 <0>        -0.5422 
      23 N3        -1.1821    3.9387    8.6725 N.am      1 <0>        -0.7214 
      24 C16       -0.5411    5.1162    8.0694 C.3       1 <0>         0.2043 
      25 C17       -0.1489    6.0870    9.1573 C.2       1 <0>        -0.0464 
      26 C18       -0.3363    5.9202   10.4736 C.2       1 <0>        -0.1782 
      27 C19        0.2303    7.1571   11.0562 C.2       1 <0>        -0.2183 
      28 C20        0.6698    7.8463    9.9998 C.2       1 <0>        -0.0240 
      29 O6         0.4749    7.2638    8.7495 O.3       1 <0>        -0.1712 
      30 H1         3.8930    0.9922    7.7939 H         1 <0>         0.0628 
      31 H2         3.7522    2.7581    7.9362 H         1 <0>         0.0628 
      32 H3         2.3025    1.7714    7.6481 H         1 <0>         0.0640 
      33 H4         4.6330    2.0989    5.7146 H         1 <0>         0.0966 
      34 H5         3.0525    2.8988    5.5722 H         1 <0>         0.0966 
      35 H6         3.5090    1.4341    3.3684 H         1 <0>         0.4131 
      36 H7         2.9384   -0.5437    2.2174 H         1 <0>         0.1171 
      37 H8         2.8367   -1.3884    3.7774 H         1 <0>         0.1171 
      38 H9        -1.4771   -1.1790    3.6366 H         1 <0>         0.1185 
      39 H10       -1.0964    1.7990    4.1501 H         1 <0>         0.0777 
      40 H11       -1.0620    1.0047    2.5608 H         1 <0>         0.0803 
      41 H12       -2.5683    1.0424    3.5029 H         1 <0>         0.0842 
      42 H13       -0.6961    1.2256    6.2914 H         1 <0>         0.4245 
      43 H14       -2.5298   -1.6178    7.7074 H         1 <0>         0.1486 
      44 H15       -3.5786   -1.6067    9.9566 H         1 <0>         0.1348 
      45 H16       -3.5692    0.4659   11.3246 H         1 <0>         0.1332 
      46 H17       -2.4294    2.4977   10.4943 H         1 <0>         0.1296 
      47 H18       -1.5726    3.9961    9.6022 H         1 <0>         0.4054 
      48 H19       -1.2379    5.5977    7.3865 H         1 <0>         0.1035 
      49 H20        0.3465    4.8049    7.5228 H         1 <0>         0.0890 
      50 H21       -0.7865    5.0973   11.0088 H         1 <0>         0.1520 
      51 H22        0.2843    7.4379   12.0977 H         1 <0>         0.1526 
      52 H23        1.1484    8.8125   10.0599 H         1 <0>         0.2068 
@<TRIPOS>BOND
       1        1        2 1        
       2        1       30 1        
       3        1       31 1        
       4        1       32 1        
       5        2        3 1        
       6        2       33 1        
       7        2       34 1        
       8        3        4 2        
       9        3        5 am       
      10        5        6 1        
      11        5       35 1        
      12        6        7 1        
      13        6       36 1        
      14        6       37 1        
      15        7        8 2        
      16        7        9 1        
      17        9       10 1        
      18       10       11 1        
      19       10       12 1        
      20       10       38 1        
      21       11       39 1        
      22       11       40 1        
      23       11       41 1        
      24       12       13 2        
      25       12       14 am       
      26       14       15 1        
      27       14       42 1        
      28       15       20 ar       
      29       15       16 ar       
      30       16       17 ar       
      31       16       43 1        
      32       17       18 ar       
      33       17       44 1        
      34       18       19 ar       
      35       18       45 1        
      36       19       20 ar       
      37       19       46 1        
      38       20       21 1        
      39       21       22 2        
      40       21       23 am       
      41       23       24 1        
      42       23       47 1        
      43       24       25 1        
      44       24       48 1        
      45       24       49 1        
      46       25       29 1        
      47       25       26 2        
      48       26       27 1        
      49       26       50 1        
      50       27       28 2        
      51       27       51 1        
      52       28       29 1        
      53       28       52 1        

