#        1GCZ_R01_S0001_C0000_L00017_S0001_C0043_G0010_E0001.mol2
#        Tue Jun  6 10:01:36 2017
#        Descriptor:     16     2     5     9     7    14
#        Energy - RMSD - RMSD MassCentre:     -68.5775    999.9999    999.9999
#        Receptor:       1  Surface Point:     1  Conformer:     0
#        Ligand:        17  Surface Point:     1  Conformer:    43
#        BUDE Formal Charge: 0
#        ATOM Count: 52
#        Heavy ATOM Count: 29
@<TRIPOS>MOLECULE
ZINC61282001_1GCZ_R01_S0001_C0000_L00017_S0001_C0043_G0010_E0001
 52 53 0 0 0
SMALL
USER_CHARGES
@<TRIPOS>ATOM
       1 C1         1.2743   -0.5658   10.9927 C.3       1 <0>        -0.1391 
       2 C2        -0.0473   -1.2263   11.3745 C.3       1 <0>        -0.1418 
       3 C3        -0.7275   -1.7451   10.1302 C.2       1 <0>         0.5169 
       4 O1        -0.9639   -2.9465   10.0130 O.2       1 <0>        -0.5335 
       5 N1        -1.0712   -0.9025    9.1603 N.am      1 <0>        -0.7285 
       6 C4        -1.7334   -1.4075    7.9490 C.3       1 <0>         0.1288 
       7 C5        -0.7119   -2.0739    7.0587 C.2       1 <0>         0.4630 
       8 O2        -0.4569   -1.6084    5.9881 O.2       1 <0>        -0.4988 
       9 O3        -0.0863   -3.1963    7.4725 O.3       1 <0>        -0.3175 
      10 C6         0.8732   -3.7917    6.5952 C.3       1 <0>         0.0731 
      11 C7         1.4035   -5.0797    7.2185 C.3       1 <0>        -0.1692 
      12 C8         2.0176   -2.8312    6.3761 C.2       1 <0>         0.5202 
      13 O4         3.1701   -3.1786    6.6292 O.2       1 <0>        -0.4963 
      14 N2         1.7793   -1.6089    5.9093 N.am      1 <0>        -0.6538 
      15 C9         2.8506   -0.7077    5.7036 C.ar      1 <0>         0.2101 
      16 C10        4.0722   -0.8675    6.3683 C.ar      1 <0>        -0.1321 
      17 C11        5.0871    0.0767    6.1721 C.ar      1 <0>        -0.0675 
      18 C12        4.8805    1.1682    5.3188 C.ar      1 <0>        -0.1401 
      19 C13        3.6702    1.3044    4.6286 C.ar      1 <0>        -0.0656 
      20 C14        2.6471    0.3715    4.8355 C.ar      1 <0>        -0.1718 
      21 C15        1.3187    0.4575    4.1885 C.2       1 <0>         0.5702 
      22 O5         0.4633   -0.3939    4.4258 O.2       1 <0>        -0.5422 
      23 N3         1.0508    1.4552    3.3509 N.am      1 <0>        -0.7214 
      24 C16       -0.2686    1.5405    2.7083 C.3       1 <0>         0.2043 
      25 C17       -0.3687    0.4930    1.6255 C.2       1 <0>        -0.0464 
      26 C18        0.5790   -0.3931    1.2902 C.2       1 <0>        -0.1782 
      27 C19       -0.0477   -1.1598    0.1901 C.2       1 <0>        -0.2183 
      28 C20       -1.2610   -0.6162    0.0607 C.2       1 <0>        -0.0240 
      29 O6        -1.5658    0.4408    0.9151 O.3       1 <0>        -0.1712 
      30 H1         1.0813    0.2693   10.3225 H         1 <0>         0.0628 
      31 H2         1.7707   -0.2038   11.8906 H         1 <0>         0.0628 
      32 H3         1.9114   -1.2926   10.4932 H         1 <0>         0.0640 
      33 H4        -0.6909   -0.4967   11.8614 H         1 <0>         0.0966 
      34 H5         0.1435   -2.0539   12.0546 H         1 <0>         0.0966 
      35 H6        -0.8775    0.0842    9.2554 H         1 <0>         0.4131 
      36 H7        -2.4976   -2.1303    8.2272 H         1 <0>         0.1171 
      37 H8        -2.1941   -0.5793    7.4147 H         1 <0>         0.1171 
      38 H9         0.4020   -4.0171    5.6408 H         1 <0>         0.1185 
      39 H10        1.8634   -4.8547    8.1785 H         1 <0>         0.0777 
      40 H11        0.5811   -5.7767    7.3641 H         1 <0>         0.0803 
      41 H12        2.1437   -5.5242    6.5566 H         1 <0>         0.0842 
      42 H13        0.8330   -1.3237    5.7016 H         1 <0>         0.4245 
      43 H14        4.2269   -1.7073    7.0295 H         1 <0>         0.1486 
      44 H15        6.0285   -0.0348    6.6893 H         1 <0>         0.1348 
      45 H16        5.6580    1.9056    5.1845 H         1 <0>         0.1332 
      46 H17        3.5305    2.1269    3.9428 H         1 <0>         0.1296 
      47 H18        1.7540    2.1538    3.1567 H         1 <0>         0.4054 
      48 H19       -0.3949    2.5287    2.2708 H         1 <0>         0.1035 
      49 H20       -1.0448    1.3704    3.4513 H         1 <0>         0.0890 
      50 H21        1.5667   -0.5379    1.7021 H         1 <0>         0.1520 
      51 H22        0.3743   -1.9772   -0.3756 H         1 <0>         0.1526 
      52 H23       -1.9980   -0.9378   -0.6602 H         1 <0>         0.2068 
@<TRIPOS>BOND
       1        1        2 1        
       2        1       30 1        
       3        1       31 1        
       4        1       32 1        
       5        2        3 1        
       6        2       33 1        
       7        2       34 1        
       8        3        4 2        
       9        3        5 am       
      10        5        6 1        
      11        5       35 1        
      12        6        7 1        
      13        6       36 1        
      14        6       37 1        
      15        7        8 2        
      16        7        9 1        
      17        9       10 1        
      18       10       11 1        
      19       10       12 1        
      20       10       38 1        
      21       11       39 1        
      22       11       40 1        
      23       11       41 1        
      24       12       13 2        
      25       12       14 am       
      26       14       15 1        
      27       14       42 1        
      28       15       20 ar       
      29       15       16 ar       
      30       16       17 ar       
      31       16       43 1        
      32       17       18 ar       
      33       17       44 1        
      34       18       19 ar       
      35       18       45 1        
      36       19       20 ar       
      37       19       46 1        
      38       20       21 1        
      39       21       22 2        
      40       21       23 am       
      41       23       24 1        
      42       23       47 1        
      43       24       25 1        
      44       24       48 1        
      45       24       49 1        
      46       25       29 1        
      47       25       26 2        
      48       26       27 1        
      49       26       50 1        
      50       27       28 2        
      51       27       51 1        
      52       28       29 1        
      53       28       52 1        

