#        1GCZ_R01_S0001_C0000_L00017_S0001_C0043_G0010_E0001.mol2
#        Tue Jun  6 14:19:40 2017
#        Descriptor:     16     5    13    10     8    14
#        Energy - RMSD - RMSD MassCentre:     -73.0988    999.9999    999.9999
#        Receptor:       1  Surface Point:     1  Conformer:     0
#        Ligand:        17  Surface Point:     1  Conformer:    43
#        BUDE Formal Charge: 0
#        ATOM Count: 52
#        Heavy ATOM Count: 29
@<TRIPOS>MOLECULE
ZINC61282001_1GCZ_R01_S0001_C0000_L00017_S0001_C0043_G0010_E0001
 52 53 0 0 0
SMALL
USER_CHARGES
@<TRIPOS>ATOM
       1 C1         3.2685   -1.6190   10.5783 C.3       1 <0>        -0.1391 
       2 C2         3.6955   -3.0423   10.2312 C.3       1 <0>        -0.1418 
       3 C3         3.6164   -3.2401    8.7363 C.2       1 <0>         0.5169 
       4 O1         4.6286   -3.5265    8.0986 O.2       1 <0>        -0.5335 
       5 N1         2.4518   -3.1043    8.1086 N.am      1 <0>        -0.7285 
       6 C4         2.3749   -3.2968    6.6533 C.3       1 <0>         0.1288 
       7 C5         2.9350   -2.0805    5.9553 C.2       1 <0>         0.4630 
       8 O2         2.2216   -1.3919    5.2884 O.2       1 <0>        -0.4988 
       9 O3         4.2425   -1.7709    6.0849 O.3       1 <0>        -0.3175 
      10 C6         4.7274   -0.6098    5.4055 C.3       1 <0>         0.0731 
      11 C7         6.2327   -0.4836    5.6223 C.3       1 <0>        -0.1692 
      12 C8         4.0365    0.6170    5.9514 C.2       1 <0>         0.5202 
      13 O4         4.7009    1.5459    6.4079 O.2       1 <0>        -0.4963 
      14 N2         2.7088    0.6929    5.9387 N.am      1 <0>        -0.6538 
      15 C9         2.0600    1.8417    6.4500 C.ar      1 <0>         0.2101 
      16 C10        2.7002    2.6944    7.3571 C.ar      1 <0>        -0.1321 
      17 C11        2.0019    3.7918    7.8750 C.ar      1 <0>        -0.0675 
      18 C12        0.6775    4.0325    7.4877 C.ar      1 <0>        -0.1401 
      19 C13        0.0534    3.1977    6.5532 C.ar      1 <0>        -0.0656 
      20 C14        0.7427    2.0897    6.0462 C.ar      1 <0>        -0.1718 
      21 C15        0.1516    1.1252    5.0919 C.2       1 <0>         0.5702 
      22 O5         0.8143    0.1674    4.6964 O.2       1 <0>        -0.5422 
      23 N3        -1.0957    1.2946    4.6625 N.am      1 <0>        -0.7214 
      24 C16       -1.6828    0.3366    3.7146 C.3       1 <0>         0.2043 
      25 C17       -1.0912    0.5598    2.3435 C.2       1 <0>        -0.0464 
      26 C18       -0.1678    1.4748    2.0183 C.2       1 <0>        -0.1782 
      27 C19        0.0397    1.2475    0.5705 C.2       1 <0>        -0.2183 
      28 C20       -0.7792    0.2339    0.2767 C.2       1 <0>        -0.0240 
      29 O6        -1.5457   -0.2731    1.3236 O.3       1 <0>        -0.1712 
      30 H1         2.2415   -1.4603   10.2557 H         1 <0>         0.0628 
      31 H2         3.3381   -1.4724   11.6541 H         1 <0>         0.0628 
      32 H3         3.9217   -0.9114   10.0721 H         1 <0>         0.0640 
      33 H4         3.0342   -3.7508   10.7255 H         1 <0>         0.0966 
      34 H5         4.7182   -3.2062   10.5645 H         1 <0>         0.0966 
      35 H6         1.6201   -2.8690    8.6311 H         1 <0>         0.4131 
      36 H7         2.9534   -4.1742    6.3718 H         1 <0>         0.1171 
      37 H8         1.3367   -3.4367    6.3597 H         1 <0>         0.1171 
      38 H9         4.5198   -0.6986    4.3411 H         1 <0>         0.1185 
      39 H10        6.4397   -0.4074    6.6877 H         1 <0>         0.0777 
      40 H11        6.7315   -1.3613    5.2171 H         1 <0>         0.0803 
      41 H12        6.5978    0.4077    5.1167 H         1 <0>         0.0842 
      42 H13        2.1633   -0.0699    5.5640 H         1 <0>         0.4245 
      43 H14        3.7197    2.5035    7.6578 H         1 <0>         0.1486 
      44 H15        2.4862    4.4481    8.5828 H         1 <0>         0.1348 
      45 H16        0.1348    4.8684    7.9037 H         1 <0>         0.1332 
      46 H17       -0.9548    3.4103    6.2294 H         1 <0>         0.1296 
      47 H18       -1.6389    2.0815    4.9879 H         1 <0>         0.4054 
      48 H19       -2.7603    0.4820    3.6737 H         1 <0>         0.1035 
      49 H20       -1.4654   -0.6773    4.0435 H         1 <0>         0.0890 
      50 H21        0.3239    2.2109    2.6370 H         1 <0>         0.1520 
      51 H22        0.7056    1.7742   -0.0968 H         1 <0>         0.1526 
      52 H23       -0.8843   -0.1978   -0.7076 H         1 <0>         0.2068 
@<TRIPOS>BOND
       1        1        2 1        
       2        1       30 1        
       3        1       31 1        
       4        1       32 1        
       5        2        3 1        
       6        2       33 1        
       7        2       34 1        
       8        3        4 2        
       9        3        5 am       
      10        5        6 1        
      11        5       35 1        
      12        6        7 1        
      13        6       36 1        
      14        6       37 1        
      15        7        8 2        
      16        7        9 1        
      17        9       10 1        
      18       10       11 1        
      19       10       12 1        
      20       10       38 1        
      21       11       39 1        
      22       11       40 1        
      23       11       41 1        
      24       12       13 2        
      25       12       14 am       
      26       14       15 1        
      27       14       42 1        
      28       15       20 ar       
      29       15       16 ar       
      30       16       17 ar       
      31       16       43 1        
      32       17       18 ar       
      33       17       44 1        
      34       18       19 ar       
      35       18       45 1        
      36       19       20 ar       
      37       19       46 1        
      38       20       21 1        
      39       21       22 2        
      40       21       23 am       
      41       23       24 1        
      42       23       47 1        
      43       24       25 1        
      44       24       48 1        
      45       24       49 1        
      46       25       29 1        
      47       25       26 2        
      48       26       27 1        
      49       26       50 1        
      50       27       28 2        
      51       27       51 1        
      52       28       29 1        
      53       28       52 1        

