#        1GCZ_R01_S0001_C0000_L00003_S0001_C0039_G0010_E0001.mol2
#        Tue Jun  6 09:55:09 2017
#        Descriptor:     29     7    28     7    10    14
#        Energy - RMSD - RMSD MassCentre:     -62.4401    999.9999    999.9999
#        Receptor:       1  Surface Point:     1  Conformer:     0
#        Ligand:         3  Surface Point:     1  Conformer:    39
#        BUDE Formal Charge: 0
#        ATOM Count: 58
#        Heavy ATOM Count: 30
@<TRIPOS>MOLECULE
ZINC61580633_1GCZ_R01_S0001_C0000_L00003_S0001_C0039_G0010_E0001
 58 59 0 0 0
SMALL
USER_CHARGES
@<TRIPOS>ATOM
       1 C1         0.4119    1.1831   -0.9529 C.3       1 <0>        -0.1532 
       2 C2        -1.0248    1.0904   -0.4468 C.3       1 <0>        -0.1224 
       3 C3        -1.1522   -0.0964    0.5072 C.3       1 <0>        -0.1198 
       4 C4        -0.2195    0.1077    1.7002 C.3       1 <0>         0.0610 
       5 O1        -0.6220    1.2729    2.4249 O.3       1 <0>        -0.3878 
       6 C5         0.2176    1.5151    3.5568 C.3       1 <0>         0.0487 
       7 C6         0.1387    0.3254    4.5123 C.3       1 <0>         0.1244 
       8 N1         1.0019    0.5745    5.6758 N.am      1 <0>        -0.7216 
       9 C7         2.3245    0.5281    5.5441 C.2       1 <0>         0.5161 
      10 O2         2.8259    0.2771    4.4496 O.2       1 <0>        -0.5151 
      11 C8         3.2112    0.7839    6.7394 C.3       1 <0>         0.0490 
      12 O3         3.1286    2.1635    7.1065 O.3       1 <0>        -0.3194 
      13 C9         1.9328    2.6402    7.5129 C.2       1 <0>         0.5417 
      14 O4         0.9638    1.9002    7.5586 O.2       1 <0>        -0.5337 
      15 C10        1.7970    4.0612    7.9032 C.2       1 <0>        -0.2559 
      16 C11        2.9074    5.0396    7.8980 C.2       1 <0>        -0.0791 
      17 C12        2.5207    6.2501    8.3070 C.2       1 <0>        -0.2585 
      18 S1         0.8015    6.3132    8.7227 S.3       1 <0>         0.3028 
      19 C13        0.6407    4.5984    8.3154 C.2       1 <0>         0.0893 
      20 N2        -0.5128    3.8649    8.4071 N.am      1 <0>        -0.6099 
      21 C14       -1.6373    4.4415    8.8217 C.2       1 <0>         0.5551 
      22 O5        -1.6418    5.6340    9.1229 O.2       1 <0>        -0.4939 
      23 C15       -2.8826    3.6478    8.9201 C.ar      1 <0>        -0.1466 
      24 C16       -4.0425    4.2940    9.3640 C.ar      1 <0>        -0.0772 
      25 C17       -5.2326    3.5800    9.5480 C.ar      1 <0>        -0.1241 
      26 C18       -5.2820    2.2031    9.3010 C.ar      1 <0>        -0.0446 
      27 C19       -4.1385    1.5647    8.8064 C.ar      1 <0>        -0.1261 
      28 C20       -2.9585    2.2880    8.5960 C.ar      1 <0>        -0.0460 
      29 C21       -6.5580    1.4397    9.5649 C.3       1 <0>        -0.0928 
      30 C22       -6.5514    0.9203   10.9996 C.3       1 <0>        -0.1485 
      31 H1         0.6663    0.2712   -1.4891 H         1 <0>         0.0567 
      32 H2         1.0860    1.3078   -0.1081 H         1 <0>         0.0554 
      33 H3         0.5058    2.0361   -1.6216 H         1 <0>         0.0557 
      34 H4        -1.2846    2.0069    0.0789 H         1 <0>         0.0632 
      35 H5        -1.6986    0.9515   -1.2896 H         1 <0>         0.0635 
      36 H6        -2.1789   -0.1711    0.8590 H         1 <0>         0.0711 
      37 H7        -0.8790   -1.0119   -0.0134 H         1 <0>         0.0704 
      38 H8        -0.2703   -0.7607    2.3538 H         1 <0>         0.0498 
      39 H9         0.8010    0.2365    1.3456 H         1 <0>         0.0505 
      40 H10       -0.1153    2.4146    4.0703 H         1 <0>         0.0584 
      41 H11        1.2457    1.6456    3.2252 H         1 <0>         0.0702 
      42 H12        0.4722   -0.5746    4.0002 H         1 <0>         0.0872 
      43 H13       -0.8887    0.1945    4.8452 H         1 <0>         0.0805 
      44 H14        0.5911    0.7807    6.5752 H         1 <0>         0.4058 
      45 H15        2.8834    0.1671    7.5735 H         1 <0>         0.1008 
      46 H16        4.2404    0.5374    6.4875 H         1 <0>         0.0999 
      47 H17        3.9082    4.7838    7.5829 H         1 <0>         0.1557 
      48 H18        3.1940    7.0928    8.3597 H         1 <0>         0.1929 
      49 H19       -0.5092    2.8857    8.1597 H         1 <0>         0.4317 
      50 H20       -4.0204    5.3535    9.5717 H         1 <0>         0.1287 
      51 H21       -6.1227    4.0904    9.8849 H         1 <0>         0.1326 
      52 H22       -4.1809    0.5082    8.5860 H         1 <0>         0.1342 
      53 H23       -2.1275    1.7554    8.1576 H         1 <0>         0.1410 
      54 H24       -6.6273    0.6012    8.8752 H         1 <0>         0.0777 
      55 H25       -7.4110    2.0997    9.4212 H         1 <0>         0.0771 
      56 H26       -6.4947    1.7604   11.6886 H         1 <0>         0.0623 
      57 H27       -5.6901    0.2717   11.1460 H         1 <0>         0.0572 
      58 H28       -7.4646    0.3590   11.1855 H         1 <0>         0.0578 
@<TRIPOS>BOND
       1        1        2 1        
       2        1       31 1        
       3        1       32 1        
       4        1       33 1        
       5        2        3 1        
       6        2       34 1        
       7        2       35 1        
       8        3        4 1        
       9        3       36 1        
      10        3       37 1        
      11        4        5 1        
      12        4       38 1        
      13        4       39 1        
      14        5        6 1        
      15        6        7 1        
      16        6       40 1        
      17        6       41 1        
      18        7        8 1        
      19        7       42 1        
      20        7       43 1        
      21        8        9 am       
      22        8       44 1        
      23        9       10 2        
      24        9       11 1        
      25       11       12 1        
      26       11       45 1        
      27       11       46 1        
      28       12       13 1        
      29       13       14 2        
      30       13       15 1        
      31       15       19 2        
      32       15       16 1        
      33       16       17 2        
      34       16       47 1        
      35       17       18 1        
      36       17       48 1        
      37       18       19 1        
      38       19       20 1        
      39       20       21 am       
      40       20       49 1        
      41       21       22 2        
      42       21       23 1        
      43       23       28 ar       
      44       23       24 ar       
      45       24       25 ar       
      46       24       50 1        
      47       25       26 ar       
      48       25       51 1        
      49       26       27 ar       
      50       26       29 1        
      51       27       28 ar       
      52       27       52 1        
      53       28       53 1        
      54       29       30 1        
      55       29       54 1        
      56       29       55 1        
      57       30       56 1        
      58       30       57 1        
      59       30       58 1        

