#        1GCZ_R01_S0001_C0000_L00017_S0001_C0044_G0010_E0001.mol2
#        Tue Jun  6 10:01:36 2017
#        Descriptor:     13     3    11     9     7    15
#        Energy - RMSD - RMSD MassCentre:     -68.9649    999.9999    999.9999
#        Receptor:       1  Surface Point:     1  Conformer:     0
#        Ligand:        17  Surface Point:     1  Conformer:    44
#        BUDE Formal Charge: 0
#        ATOM Count: 52
#        Heavy ATOM Count: 29
@<TRIPOS>MOLECULE
ZINC61282001_1GCZ_R01_S0001_C0000_L00017_S0001_C0044_G0010_E0001
 52 53 0 0 0
SMALL
USER_CHARGES
@<TRIPOS>ATOM
       1 C1        -0.2972   -3.9408   11.9057 C.3       1 <0>        -0.1391 
       2 C2        -0.9029   -3.0677   10.8105 C.3       1 <0>        -0.1418 
       3 C3        -0.4289   -3.5531    9.4615 C.2       1 <0>         0.5169 
       4 O1         0.3305   -4.5177    9.3860 O.2       1 <0>        -0.5335 
       5 N1        -0.8327   -2.9371    8.3541 N.am      1 <0>        -0.7285 
       6 C4        -0.3713   -3.4095    7.0408 C.3       1 <0>         0.1288 
       7 C5         1.0525   -2.9590    6.8166 C.2       1 <0>         0.4630 
       8 O2         1.3036   -2.1810    5.9451 O.2       1 <0>        -0.4988 
       9 O3         2.0422   -3.4354    7.6013 O.3       1 <0>        -0.3175 
      10 C6         3.3745   -2.9801    7.3513 C.3       1 <0>         0.0731 
      11 C7         4.3415   -3.6910    8.2937 C.3       1 <0>        -0.1692 
      12 C8         3.4485   -1.4902    7.5855 C.2       1 <0>         0.5202 
      13 O4         4.2612   -1.0326    8.3873 O.2       1 <0>        -0.4963 
      14 N2         2.6343   -0.6722    6.9245 N.am      1 <0>        -0.6538 
      15 C9         2.7024    0.7241    7.1430 C.ar      1 <0>         0.2101 
      16 C10        3.2565    1.2496    8.3163 C.ar      1 <0>        -0.1321 
      17 C11        3.2575    2.6359    8.5117 C.ar      1 <0>        -0.0675 
      18 C12        2.7103    3.4860    7.5422 C.ar      1 <0>        -0.1401 
      19 C13        2.1898    2.9582    6.3546 C.ar      1 <0>        -0.0656 
      20 C14        2.1716    1.5716    6.1634 C.ar      1 <0>        -0.1718 
      21 C15        1.6006    0.9187    4.9641 C.2       1 <0>         0.5702 
      22 O5         1.6099   -0.3076    4.8687 O.2       1 <0>        -0.5422 
      23 N3         1.0777    1.6584    3.9902 N.am      1 <0>        -0.7214 
      24 C16        0.5106    1.0100    2.7991 C.3       1 <0>         0.2043 
      25 C17       -0.8178    0.3848    3.1519 C.2       1 <0>        -0.0464 
      26 C18       -1.4120    0.4112    4.3526 C.2       1 <0>        -0.1782 
      27 C19       -2.6668   -0.3405    4.1266 C.2       1 <0>        -0.2183 
      28 C20       -2.6194   -0.6779    2.8350 C.2       1 <0>        -0.0240 
      29 O6        -1.4905   -0.2744    2.1256 O.3       1 <0>        -0.1712 
      30 H1         0.7878   -3.8696   11.8670 H         1 <0>         0.0628 
      31 H2        -0.6493   -3.5993   12.8770 H         1 <0>         0.0628 
      32 H3        -0.5990   -4.9747   11.7528 H         1 <0>         0.0640 
      33 H4        -0.5902   -2.0355   10.9542 H         1 <0>         0.0966 
      34 H5        -1.9882   -3.1283   10.8562 H         1 <0>         0.0966 
      35 H6        -1.4562   -2.1448    8.4148 H         1 <0>         0.4131 
      36 H7        -0.4164   -4.4961    7.0093 H         1 <0>         0.1171 
      37 H8        -1.0086   -2.9967    6.2617 H         1 <0>         0.1171 
      38 H9         3.6455   -3.1983    6.3203 H         1 <0>         0.1185 
      39 H10        4.0619   -3.4820    9.3242 H         1 <0>         0.0777 
      40 H11        4.2978   -4.7633    8.1157 H         1 <0>         0.0803 
      41 H12        5.3527   -3.3334    8.1121 H         1 <0>         0.0842 
      42 H13        1.9670   -1.0480    6.2662 H         1 <0>         0.4245 
      43 H14        3.6731    0.5916    9.0644 H         1 <0>         0.1486 
      44 H15        3.6743    3.0478    9.4189 H         1 <0>         0.1348 
      45 H16        2.6947    4.5536    7.7043 H         1 <0>         0.1332 
      46 H17        1.8040    3.6209    5.5940 H         1 <0>         0.1296 
      47 H18        1.0706    2.6653    4.0696 H         1 <0>         0.4054 
      48 H19        1.1929    0.2392    2.4470 H         1 <0>         0.1035 
      49 H20        0.3664    1.7523    2.0169 H         1 <0>         0.0890 
      50 H21       -1.0826    0.8620    5.2771 H         1 <0>         0.1520 
      51 H22       -3.4477   -0.5612    4.8392 H         1 <0>         0.1526 
      52 H23       -3.3864   -1.2415    2.3248 H         1 <0>         0.2068 
@<TRIPOS>BOND
       1        1        2 1        
       2        1       30 1        
       3        1       31 1        
       4        1       32 1        
       5        2        3 1        
       6        2       33 1        
       7        2       34 1        
       8        3        4 2        
       9        3        5 am       
      10        5        6 1        
      11        5       35 1        
      12        6        7 1        
      13        6       36 1        
      14        6       37 1        
      15        7        8 2        
      16        7        9 1        
      17        9       10 1        
      18       10       11 1        
      19       10       12 1        
      20       10       38 1        
      21       11       39 1        
      22       11       40 1        
      23       11       41 1        
      24       12       13 2        
      25       12       14 am       
      26       14       15 1        
      27       14       42 1        
      28       15       20 ar       
      29       15       16 ar       
      30       16       17 ar       
      31       16       43 1        
      32       17       18 ar       
      33       17       44 1        
      34       18       19 ar       
      35       18       45 1        
      36       19       20 ar       
      37       19       46 1        
      38       20       21 1        
      39       21       22 2        
      40       21       23 am       
      41       23       24 1        
      42       23       47 1        
      43       24       25 1        
      44       24       48 1        
      45       24       49 1        
      46       25       29 1        
      47       25       26 2        
      48       26       27 1        
      49       26       50 1        
      50       27       28 2        
      51       27       51 1        
      52       28       29 1        
      53       28       52 1        

