#        1GCZ_R01_S0001_C0000_L00017_S0001_C0044_G0010_E0001.mol2
#        Tue Jun  6 14:19:42 2017
#        Descriptor:     11     2    12     8     7    15
#        Energy - RMSD - RMSD MassCentre:     -66.0365    999.9999    999.9999
#        Receptor:       1  Surface Point:     1  Conformer:     0
#        Ligand:        17  Surface Point:     1  Conformer:    44
#        BUDE Formal Charge: 0
#        ATOM Count: 52
#        Heavy ATOM Count: 29
@<TRIPOS>MOLECULE
ZINC61282001_1GCZ_R01_S0001_C0000_L00017_S0001_C0044_G0010_E0001
 52 53 0 0 0
SMALL
USER_CHARGES
@<TRIPOS>ATOM
       1 C1        -2.8820   -3.8889   11.2125 C.3       1 <0>        -0.1391 
       2 C2        -3.0807   -3.0530    9.9514 C.3       1 <0>        -0.1418 
       3 C3        -2.1521   -3.5485    8.8687 C.2       1 <0>         0.5169 
       4 O1        -1.3953   -4.4924    9.0909 O.2       1 <0>        -0.5335 
       5 N1        -2.1524   -2.9640    7.6741 N.am      1 <0>        -0.7285 
       6 C4        -1.2484   -3.4464    6.6201 C.3       1 <0>         0.1288 
       7 C5         0.1536   -2.9597    6.8990 C.2       1 <0>         0.4630 
       8 O2         0.6797   -2.1905    6.1511 O.2       1 <0>        -0.4988 
       9 O3         0.8129   -3.3938    7.9941 O.3       1 <0>        -0.3175 
      10 C6         2.1383   -2.9053    8.2165 C.3       1 <0>         0.0731 
      11 C7         2.7256   -3.5715    9.4575 C.3       1 <0>        -0.1692 
      12 C8         2.0947   -1.4099    8.4221 C.2       1 <0>         0.5202 
      13 O4         2.5634   -0.9152    9.4460 O.2       1 <0>        -0.4963 
      14 N2         1.5491   -0.6273    7.4955 N.am      1 <0>        -0.6538 
      15 C9         1.5074    0.7740    7.6867 C.ar      1 <0>         0.2101 
      16 C10        1.6019    1.3359    8.9654 C.ar      1 <0>        -0.1321 
      17 C11        1.5058    2.7249    9.1117 C.ar      1 <0>        -0.0675 
      18 C12        1.3180    3.5417    7.9894 C.ar      1 <0>        -0.1401 
      19 C13        1.2600    2.9784    6.7092 C.ar      1 <0>        -0.0656 
      20 C14        1.3386    1.5886    6.5607 C.ar      1 <0>        -0.1718 
      21 C15        1.2401    0.8986    5.2551 C.2       1 <0>         0.5702 
      22 O5         1.3074   -0.3284    5.2018 O.2       1 <0>        -0.5422 
      23 N3         1.0788    1.6057    4.1402 N.am      1 <0>        -0.7214 
      24 C16        0.9811    0.9203    2.8434 C.3       1 <0>         0.2043 
      25 C17       -0.3735    0.2640    2.7230 C.2       1 <0>        -0.0464 
      26 C18       -1.3530    0.2949    3.6368 C.2       1 <0>        -0.1782 
      27 C19       -2.4322   -0.4961    3.0041 C.2       1 <0>        -0.2183 
      28 C20       -1.9259   -0.8549    1.8211 C.2       1 <0>        -0.0240 
      29 O6        -0.6280   -0.4321    1.5436 O.3       1 <0>        -0.1712 
      30 H1        -1.8546   -3.7876   11.5559 H         1 <0>         0.0628 
      31 H2        -3.5606   -3.5404   11.9884 H         1 <0>         0.0628 
      32 H3        -3.0895   -4.9336   10.9907 H         1 <0>         0.0640 
      33 H4        -2.8597   -2.0099   10.1683 H         1 <0>         0.0966 
      34 H5        -4.1111   -3.1436    9.6141 H         1 <0>         0.0966 
      35 H6        -2.7733   -2.1888    7.4905 H         1 <0>         0.4131 
      36 H7        -1.2574   -4.5343    6.6036 H         1 <0>         0.1171 
      37 H8        -1.5787   -3.0658    5.6559 H         1 <0>         0.1171 
      38 H9         2.7595   -3.1339    7.3530 H         1 <0>         0.1185 
      39 H10        2.0967   -3.3523   10.3179 H         1 <0>         0.0777 
      40 H11        2.7693   -4.6476    9.3041 H         1 <0>         0.0803 
      41 H12        3.7285   -3.1886    9.6337 H         1 <0>         0.0842 
      42 H13        1.1643   -1.0335    6.6548 H         1 <0>         0.4245 
      43 H14        1.7416    0.7033    9.8295 H         1 <0>         0.1486 
      44 H15        1.5678    3.1645   10.0962 H         1 <0>         0.1348 
      45 H16        1.2246    4.6112    8.1072 H         1 <0>         0.1332 
      46 H17        1.1535    3.6162    5.8441 H         1 <0>         0.1296 
      47 H18        1.0237    2.6132    4.1852 H         1 <0>         0.4054 
      48 H19        1.7592    0.1631    2.7745 H         1 <0>         0.1035 
      49 H20        1.1065    1.6442    2.0410 H         1 <0>         0.0890 
      50 H21       -1.3797    0.7711    4.6058 H         1 <0>         0.1520 
      51 H22       -3.4093   -0.7262    3.4021 H         1 <0>         0.1526 
      52 H23       -2.4524   -1.4491    1.0889 H         1 <0>         0.2068 
@<TRIPOS>BOND
       1        1        2 1        
       2        1       30 1        
       3        1       31 1        
       4        1       32 1        
       5        2        3 1        
       6        2       33 1        
       7        2       34 1        
       8        3        4 2        
       9        3        5 am       
      10        5        6 1        
      11        5       35 1        
      12        6        7 1        
      13        6       36 1        
      14        6       37 1        
      15        7        8 2        
      16        7        9 1        
      17        9       10 1        
      18       10       11 1        
      19       10       12 1        
      20       10       38 1        
      21       11       39 1        
      22       11       40 1        
      23       11       41 1        
      24       12       13 2        
      25       12       14 am       
      26       14       15 1        
      27       14       42 1        
      28       15       20 ar       
      29       15       16 ar       
      30       16       17 ar       
      31       16       43 1        
      32       17       18 ar       
      33       17       44 1        
      34       18       19 ar       
      35       18       45 1        
      36       19       20 ar       
      37       19       46 1        
      38       20       21 1        
      39       21       22 2        
      40       21       23 am       
      41       23       24 1        
      42       23       47 1        
      43       24       25 1        
      44       24       48 1        
      45       24       49 1        
      46       25       29 1        
      47       25       26 2        
      48       26       27 1        
      49       26       50 1        
      50       27       28 2        
      51       27       51 1        
      52       28       29 1        
      53       28       52 1        

