#        1GCZ_R01_S0001_C0000_L00017_S0001_C0045_G0010_E0001.mol2
#        Tue Jun  6 10:01:37 2017
#        Descriptor:     25     6    26    10     9    13
#        Energy - RMSD - RMSD MassCentre:     -71.4945    999.9999    999.9999
#        Receptor:       1  Surface Point:     1  Conformer:     0
#        Ligand:        17  Surface Point:     1  Conformer:    45
#        BUDE Formal Charge: 0
#        ATOM Count: 52
#        Heavy ATOM Count: 29
@<TRIPOS>MOLECULE
ZINC61282001_1GCZ_R01_S0001_C0000_L00017_S0001_C0045_G0010_E0001
 52 53 0 0 0
SMALL
USER_CHARGES
@<TRIPOS>ATOM
       1 C1         1.5624    0.3069   -1.7228 C.3       1 <0>        -0.1391 
       2 C2         0.8492   -0.3046   -0.5203 C.3       1 <0>        -0.1418 
       3 C3        -0.5752    0.1945   -0.4737 C.2       1 <0>         0.5169 
       4 O1        -0.9827    0.9747   -1.3326 O.2       1 <0>        -0.5335 
       5 N1        -1.3896   -0.2098    0.4971 N.am      1 <0>        -0.7285 
       6 C4        -0.9025   -1.1422    1.5237 C.3       1 <0>         0.1288 
       7 C5        -0.0368   -0.3956    2.5104 C.2       1 <0>         0.4630 
       8 O2         1.1275   -0.6497    2.5967 O.2       1 <0>        -0.4988 
       9 O3        -0.5788    0.5597    3.2953 O.3       1 <0>        -0.3175 
      10 C6         0.2801    1.2397    4.2143 C.3       1 <0>         0.0731 
      11 C7         1.4365    1.8808    3.4523 C.3       1 <0>        -0.1692 
      12 C8         0.8260    0.2515    5.2172 C.2       1 <0>         0.5202 
      13 O4         0.5391   -0.9410    5.1254 O.2       1 <0>        -0.4963 
      14 N2         1.6173    0.6708    6.2004 N.am      1 <0>        -0.6538 
      15 C9         2.1295   -0.2539    7.1410 C.ar      1 <0>         0.2101 
      16 C10        1.5076   -1.4892    7.3580 C.ar      1 <0>        -0.1321 
      17 C11        2.0205   -2.3518    8.3342 C.ar      1 <0>        -0.0675 
      18 C12        3.1443   -1.9812    9.0837 C.ar      1 <0>        -0.1401 
      19 C13        3.7842   -0.7605    8.8384 C.ar      1 <0>        -0.0656 
      20 C14        3.2640    0.1119    7.8750 C.ar      1 <0>        -0.1718 
      21 C15        3.8421    1.4418    7.5785 C.2       1 <0>         0.5702 
      22 O5         3.3249    2.1602    6.7246 O.2       1 <0>        -0.5422 
      23 N3         4.9206    1.8590    8.2355 N.am      1 <0>        -0.7214 
      24 C16        5.4949    3.1797    7.9410 C.3       1 <0>         0.2043 
      25 C17        4.6146    4.2539    8.5340 C.2       1 <0>        -0.0464 
      26 C18        3.4872    4.0588    9.2314 C.2       1 <0>        -0.1782 
      27 C19        3.0507    5.4339    9.5618 C.2       1 <0>        -0.2183 
      28 C20        3.9897    6.2153    9.0212 C.2       1 <0>        -0.0240 
      29 O6         5.0221    5.5720    8.3425 O.3       1 <0>        -0.1712 
      30 H1         1.5718    1.3906   -1.6255 H         1 <0>         0.0628 
      31 H2         2.5847   -0.0631   -1.7640 H         1 <0>         0.0628 
      32 H3         1.0382    0.0286   -2.6346 H         1 <0>         0.0640 
      33 H4         1.3643   -0.0153    0.3934 H         1 <0>         0.0966 
      34 H5         0.8501   -1.3889   -0.6102 H         1 <0>         0.0966 
      35 H6        -2.3425    0.1234    0.5292 H         1 <0>         0.4131 
      36 H7        -1.7494   -1.5825    2.0459 H         1 <0>         0.1171 
      37 H8        -0.3176   -1.9290    1.0520 H         1 <0>         0.1171 
      38 H9        -0.2832    2.0108    4.7358 H         1 <0>         0.1185 
      39 H10        1.9916    1.1103    2.9214 H         1 <0>         0.0777 
      40 H11        1.0439    2.6025    2.7391 H         1 <0>         0.0803 
      41 H12        2.0967    2.3858    4.1542 H         1 <0>         0.0842 
      42 H13        1.8528    1.6500    6.2758 H         1 <0>         0.4245 
      43 H14        0.6383   -1.7701    6.7821 H         1 <0>         0.1486 
      44 H15        1.5399   -3.3021    8.5139 H         1 <0>         0.1348 
      45 H16        3.5260   -2.6401    9.8495 H         1 <0>         0.1332 
      46 H17        4.6728   -0.4968    9.3928 H         1 <0>         0.1296 
      47 H18        5.3445    1.2682    8.9365 H         1 <0>         0.4054 
      48 H19        5.5575    3.3152    6.8633 H         1 <0>         0.1035 
      49 H20        6.4907    3.2462    8.3739 H         1 <0>         0.0890 
      50 H21        2.9929    3.1378    9.5028 H         1 <0>         0.1520 
      51 H22        2.1772    5.7389   10.1187 H         1 <0>         0.1526 
      52 H23        3.9871    7.2940    9.0724 H         1 <0>         0.2068 
@<TRIPOS>BOND
       1        1        2 1        
       2        1       30 1        
       3        1       31 1        
       4        1       32 1        
       5        2        3 1        
       6        2       33 1        
       7        2       34 1        
       8        3        4 2        
       9        3        5 am       
      10        5        6 1        
      11        5       35 1        
      12        6        7 1        
      13        6       36 1        
      14        6       37 1        
      15        7        8 2        
      16        7        9 1        
      17        9       10 1        
      18       10       11 1        
      19       10       12 1        
      20       10       38 1        
      21       11       39 1        
      22       11       40 1        
      23       11       41 1        
      24       12       13 2        
      25       12       14 am       
      26       14       15 1        
      27       14       42 1        
      28       15       20 ar       
      29       15       16 ar       
      30       16       17 ar       
      31       16       43 1        
      32       17       18 ar       
      33       17       44 1        
      34       18       19 ar       
      35       18       45 1        
      36       19       20 ar       
      37       19       46 1        
      38       20       21 1        
      39       21       22 2        
      40       21       23 am       
      41       23       24 1        
      42       23       47 1        
      43       24       25 1        
      44       24       48 1        
      45       24       49 1        
      46       25       29 1        
      47       25       26 2        
      48       26       27 1        
      49       26       50 1        
      50       27       28 2        
      51       27       51 1        
      52       28       29 1        
      53       28       52 1        

