#        1GCZ_R01_S0001_C0000_L00017_S0001_C0045_G0010_E0001.mol2
#        Tue Jun  6 14:19:44 2017
#        Descriptor:     36    34    12    14     6    14
#        Energy - RMSD - RMSD MassCentre:     -66.3227    999.9999    999.9999
#        Receptor:       1  Surface Point:     1  Conformer:     0
#        Ligand:        17  Surface Point:     1  Conformer:    45
#        BUDE Formal Charge: 0
#        ATOM Count: 52
#        Heavy ATOM Count: 29
@<TRIPOS>MOLECULE
ZINC61282001_1GCZ_R01_S0001_C0000_L00017_S0001_C0045_G0010_E0001
 52 53 0 0 0
SMALL
USER_CHARGES
@<TRIPOS>ATOM
       1 C1         5.0101   -8.0498    8.8788 C.3       1 <0>        -0.1391 
       2 C2         4.2454   -7.1850    7.8808 C.3       1 <0>        -0.1418 
       3 C3         4.2868   -7.8342    6.5181 C.2       1 <0>         0.5169 
       4 O1         4.8798   -8.9003    6.3617 O.2       1 <0>        -0.5335 
       5 N1         3.6816   -7.2526    5.4863 N.am      1 <0>        -0.7285 
       6 C4         2.9730   -5.9785    5.6733 C.3       1 <0>         0.1288 
       7 C5         3.9768   -4.8542    5.7657 C.2       1 <0>         0.4630 
       8 O2         4.0931   -4.2381    6.7829 O.2       1 <0>        -0.4988 
       9 O3         4.7435   -4.5450    4.6985 O.3       1 <0>        -0.3175 
      10 C6         5.6799   -3.4728    4.8333 C.3       1 <0>         0.0731 
      11 C7         6.6210   -3.7615    5.9994 C.3       1 <0>        -0.1692 
      12 C8         4.9354   -2.1854    5.0956 C.2       1 <0>         0.5202 
      13 O4         3.7101   -2.1936    5.2023 O.2       1 <0>        -0.4963 
      14 N2         5.6050   -1.0422    5.2112 N.am      1 <0>        -0.6538 
      15 C9         4.9088    0.1649    5.4568 C.ar      1 <0>         0.2101 
      16 C10        3.5495    0.2953    5.1484 C.ar      1 <0>        -0.1321 
      17 C11        2.9137    1.5241    5.3623 C.ar      1 <0>        -0.0675 
      18 C12        3.6315    2.6097    5.8801 C.ar      1 <0>        -0.1401 
      19 C13        4.9816    2.4643    6.2205 C.ar      1 <0>        -0.0656 
      20 C14        5.6249    1.2421    5.9921 C.ar      1 <0>        -0.1718 
      21 C15        7.0585    1.0069    6.2751 C.2       1 <0>         0.5702 
      22 O5         7.5593   -0.0914    6.0390 O.2       1 <0>        -0.5422 
      23 N3         7.8042    1.9832    6.7845 N.am      1 <0>        -0.7214 
      24 C16        9.2280    1.7495    7.0657 C.3       1 <0>         0.2043 
      25 C17        9.9988    1.7240    5.7675 C.2       1 <0>        -0.0464 
      26 C18        9.4893    1.8944    4.5399 C.2       1 <0>        -0.1782 
      27 C19       10.6744    1.7755    3.6613 C.2       1 <0>        -0.2183 
      28 C20       11.6891    1.5677    4.5050 C.2       1 <0>        -0.0240 
      29 O6        11.3723    1.5111    5.8603 O.3       1 <0>        -0.1712 
      30 H1         6.0472   -8.1375    8.5616 H         1 <0>         0.0628 
      31 H2         4.9690   -7.5888    9.8634 H         1 <0>         0.0628 
      32 H3         4.5584   -9.0387    8.9214 H         1 <0>         0.0640 
      33 H4         4.7048   -6.2002    7.8267 H         1 <0>         0.0966 
      34 H5         3.2110   -7.0862    8.2036 H         1 <0>         0.0966 
      35 H6         3.7086   -7.6860    4.5744 H         1 <0>         0.4131 
      36 H7         2.3106   -5.8038    4.8281 H         1 <0>         0.1171 
      37 H8         2.3890   -6.0186    6.5903 H         1 <0>         0.1171 
      38 H9         6.2570   -3.3767    3.9159 H         1 <0>         0.1185 
      39 H10        6.0416   -3.8697    6.9139 H         1 <0>         0.0777 
      40 H11        7.1671   -4.6821    5.8043 H         1 <0>         0.0803 
      41 H12        7.3238   -2.9385    6.1098 H         1 <0>         0.0842 
      42 H13        6.6110   -1.0355    5.1235 H         1 <0>         0.4245 
      43 H14        2.9997   -0.5420    4.7445 H         1 <0>         0.1486 
      44 H15        1.8677    1.6348    5.1174 H         1 <0>         0.1348 
      45 H16        3.1434    3.5620    6.0258 H         1 <0>         0.1332 
      46 H17        5.5201    3.2936    6.6551 H         1 <0>         0.1296 
      47 H18        7.3918    2.8847    6.9781 H         1 <0>         0.4054 
      48 H19        9.3445    0.7959    7.5763 H         1 <0>         0.1035 
      49 H20        9.6081    2.5490    7.6981 H         1 <0>         0.0890 
      50 H21        8.4696    2.0759    4.2338 H         1 <0>         0.1520 
      51 H22       10.7142    1.8472    2.5845 H         1 <0>         0.1526 
      52 H23       12.7165    1.4347    4.2000 H         1 <0>         0.2068 
@<TRIPOS>BOND
       1        1        2 1        
       2        1       30 1        
       3        1       31 1        
       4        1       32 1        
       5        2        3 1        
       6        2       33 1        
       7        2       34 1        
       8        3        4 2        
       9        3        5 am       
      10        5        6 1        
      11        5       35 1        
      12        6        7 1        
      13        6       36 1        
      14        6       37 1        
      15        7        8 2        
      16        7        9 1        
      17        9       10 1        
      18       10       11 1        
      19       10       12 1        
      20       10       38 1        
      21       11       39 1        
      22       11       40 1        
      23       11       41 1        
      24       12       13 2        
      25       12       14 am       
      26       14       15 1        
      27       14       42 1        
      28       15       20 ar       
      29       15       16 ar       
      30       16       17 ar       
      31       16       43 1        
      32       17       18 ar       
      33       17       44 1        
      34       18       19 ar       
      35       18       45 1        
      36       19       20 ar       
      37       19       46 1        
      38       20       21 1        
      39       21       22 2        
      40       21       23 am       
      41       23       24 1        
      42       23       47 1        
      43       24       25 1        
      44       24       48 1        
      45       24       49 1        
      46       25       29 1        
      47       25       26 2        
      48       26       27 1        
      49       26       50 1        
      50       27       28 2        
      51       27       51 1        
      52       28       29 1        
      53       28       52 1        

