#        1GCZ_R01_S0001_C0000_L00017_S0001_C0047_G0010_E0001.mol2
#        Tue Jun  6 10:01:39 2017
#        Descriptor:     29    17    11     8    11    14
#        Energy - RMSD - RMSD MassCentre:     -67.4882    999.9999    999.9999
#        Receptor:       1  Surface Point:     1  Conformer:     0
#        Ligand:        17  Surface Point:     1  Conformer:    47
#        BUDE Formal Charge: 0
#        ATOM Count: 52
#        Heavy ATOM Count: 29
@<TRIPOS>MOLECULE
ZINC61282001_1GCZ_R01_S0001_C0000_L00017_S0001_C0047_G0010_E0001
 52 53 0 0 0
SMALL
USER_CHARGES
@<TRIPOS>ATOM
       1 C1         2.3444    8.3123   10.9735 C.3       1 <0>        -0.1391 
       2 C2         2.1331    7.7797    9.5592 C.3       1 <0>        -0.1418 
       3 C3         2.9692    6.5383    9.3596 C.2       1 <0>         0.5169 
       4 O1         3.6745    6.1171   10.2751 O.2       1 <0>        -0.5335 
       5 N1         2.9429    5.8998    8.1932 N.am      1 <0>        -0.7285 
       6 C4         2.1001    6.4031    7.0992 C.3       1 <0>         0.1288 
       7 C5         0.6585    6.0446    7.3698 C.2       1 <0>         0.4630 
       8 O2        -0.1450    6.9064    7.5691 O.2       1 <0>        -0.4988 
       9 O3         0.2770    4.7498    7.3867 O.3       1 <0>        -0.3175 
      10 C6        -1.0986    4.4592    7.6474 C.3       1 <0>         0.0731 
      11 C7        -1.4830    5.0024    9.0207 C.3       1 <0>        -0.1692 
      12 C8        -1.3100    2.9642    7.6212 C.2       1 <0>         0.5202 
      13 O4        -1.7976    2.3941    8.5959 O.2       1 <0>        -0.4963 
      14 N2        -0.9686    2.2635    6.5436 N.am      1 <0>        -0.6538 
      15 C9        -1.1659    0.8627    6.5175 C.ar      1 <0>         0.2101 
      16 C10       -1.2828    0.1234    7.7005 C.ar      1 <0>        -0.1321 
      17 C11       -1.4272   -1.2673    7.6274 C.ar      1 <0>        -0.0675 
      18 C12       -1.4549   -1.9097    6.3830 C.ar      1 <0>        -0.1401 
      19 C13       -1.3736   -1.1626    5.2019 C.ar      1 <0>        -0.0656 
      20 C14       -1.2120    0.2262    5.2715 C.ar      1 <0>        -0.1718 
      21 C15       -1.0699    1.0938    4.0809 C.2       1 <0>         0.5702 
      22 O5        -0.9206    2.3069    4.2188 O.2       1 <0>        -0.5422 
      23 N3        -1.1037    0.5613    2.8627 N.am      1 <0>        -0.7214 
      24 C16       -0.9626    1.4230    1.6802 C.3       1 <0>         0.2043 
      25 C17       -0.5387    0.5865    0.4966 C.2       1 <0>        -0.0464 
      26 C18       -0.3270   -0.7367    0.4966 C.2       1 <0>        -0.1782 
      27 C19        0.0587   -1.0184   -0.9042 C.2       1 <0>        -0.2183 
      28 C20        0.0019    0.1727   -1.5062 C.2       1 <0>        -0.0240 
      29 O6        -0.3597    1.2575   -0.7109 O.3       1 <0>        -0.1712 
      30 H1         3.3929    8.5678   11.1113 H         1 <0>         0.0628 
      31 H2         1.7317    9.1991   11.1216 H         1 <0>         0.0628 
      32 H3         2.0588    7.5489   11.6942 H         1 <0>         0.0640 
      33 H4         2.4316    8.5371    8.8374 H         1 <0>         0.0966 
      34 H5         1.0825    7.5356    9.4161 H         1 <0>         0.0966 
      35 H6         3.5018    5.0692    8.0586 H         1 <0>         0.4131 
      36 H7         2.1979    7.4846    7.0332 H         1 <0>         0.1171 
      37 H8         2.4152    5.9520    6.1607 H         1 <0>         0.1171 
      38 H9        -1.7193    4.9259    6.8853 H         1 <0>         0.1185 
      39 H10       -0.8533    4.5441    9.7804 H         1 <0>         0.0777 
      40 H11       -1.3434    6.0811    9.0352 H         1 <0>         0.0803 
      41 H12       -2.5259    4.7682    9.2237 H         1 <0>         0.0842 
      42 H13       -0.5681    2.7317    5.7433 H         1 <0>         0.4245 
      43 H14       -1.2560    0.6208    8.6587 H         1 <0>         0.1486 
      44 H15       -1.5079   -1.8451    8.5362 H         1 <0>         0.1348 
      45 H16       -1.5467   -2.9845    6.3301 H         1 <0>         0.1332 
      46 H17       -1.4340   -1.6594    4.2448 H         1 <0>         0.1296 
      47 H18       -1.2264   -0.4350    2.7506 H         1 <0>         0.4054 
      48 H19       -0.2104    2.1846    1.8749 H         1 <0>         0.1035 
      49 H20       -1.9158    1.9007    1.4645 H         1 <0>         0.0890 
      50 H21       -0.4097   -1.4498    1.3035 H         1 <0>         0.1520 
      51 H22        0.3199   -1.9695   -1.3439 H         1 <0>         0.1526 
      52 H23        0.2252    0.3381   -2.5499 H         1 <0>         0.2068 
@<TRIPOS>BOND
       1        1        2 1        
       2        1       30 1        
       3        1       31 1        
       4        1       32 1        
       5        2        3 1        
       6        2       33 1        
       7        2       34 1        
       8        3        4 2        
       9        3        5 am       
      10        5        6 1        
      11        5       35 1        
      12        6        7 1        
      13        6       36 1        
      14        6       37 1        
      15        7        8 2        
      16        7        9 1        
      17        9       10 1        
      18       10       11 1        
      19       10       12 1        
      20       10       38 1        
      21       11       39 1        
      22       11       40 1        
      23       11       41 1        
      24       12       13 2        
      25       12       14 am       
      26       14       15 1        
      27       14       42 1        
      28       15       20 ar       
      29       15       16 ar       
      30       16       17 ar       
      31       16       43 1        
      32       17       18 ar       
      33       17       44 1        
      34       18       19 ar       
      35       18       45 1        
      36       19       20 ar       
      37       19       46 1        
      38       20       21 1        
      39       21       22 2        
      40       21       23 am       
      41       23       24 1        
      42       23       47 1        
      43       24       25 1        
      44       24       48 1        
      45       24       49 1        
      46       25       29 1        
      47       25       26 2        
      48       26       27 1        
      49       26       50 1        
      50       27       28 2        
      51       27       51 1        
      52       28       29 1        
      53       28       52 1        

