#        1GCZ_R01_S0001_C0000_L00017_S0001_C0047_G0010_E0001.mol2
#        Tue Jun  6 14:19:48 2017
#        Descriptor:     28    18    13     8    11    14
#        Energy - RMSD - RMSD MassCentre:     -59.5282    999.9999    999.9999
#        Receptor:       1  Surface Point:     1  Conformer:     0
#        Ligand:        17  Surface Point:     1  Conformer:    47
#        BUDE Formal Charge: 0
#        ATOM Count: 52
#        Heavy ATOM Count: 29
@<TRIPOS>MOLECULE
ZINC61282001_1GCZ_R01_S0001_C0000_L00017_S0001_C0047_G0010_E0001
 52 53 0 0 0
SMALL
USER_CHARGES
@<TRIPOS>ATOM
       1 C1         1.6837    8.6720   10.8420 C.3       1 <0>        -0.1391 
       2 C2         1.3145    8.1324    9.4632 C.3       1 <0>        -0.1418 
       3 C3         2.4244    7.2416    8.9586 C.2       1 <0>         0.5169 
       4 O1         3.4264    7.0560    9.6474 O.2       1 <0>        -0.5335 
       5 N1         2.3185    6.6574    7.7685 N.am      1 <0>        -0.7285 
       6 C4         1.1212    6.8793    6.9453 C.3       1 <0>         0.1288 
       7 C5        -0.0229    6.0588    7.4910 C.2       1 <0>         0.4630 
       8 O2        -0.9833    6.6020    7.9497 O.2       1 <0>        -0.4988 
       9 O3         0.0392    4.7106    7.4607 O.3       1 <0>        -0.3175 
      10 C6        -1.0681    3.9761    7.9891 C.3       1 <0>         0.0731 
      11 C7        -1.2588    4.3300    9.4612 C.3       1 <0>        -0.1692 
      12 C8        -0.7973    2.4962    7.8590 C.2       1 <0>         0.5202 
      13 O4        -0.8286    1.7747    8.8547 O.2       1 <0>        -0.4963 
      14 N2        -0.5247    1.9727    6.6673 N.am      1 <0>        -0.6538 
      15 C9        -0.2706    0.5862    6.5438 C.ar      1 <0>         0.2101 
      16 C10        0.1421   -0.1773    7.6422 C.ar      1 <0>        -0.1321 
      17 C11        0.4301   -1.5356    7.4624 C.ar      1 <0>        -0.0675 
      18 C12        0.3052   -2.1222    6.1965 C.ar      1 <0>        -0.1401 
      19 C13       -0.1422   -1.3631    5.1087 C.ar      1 <0>        -0.0656 
      20 C14       -0.4147   -0.0008    5.2812 C.ar      1 <0>        -0.1718 
      21 C15       -0.8466    0.8923    4.1828 C.2       1 <0>         0.5702 
      22 O5        -1.0584    2.0832    4.4064 O.2       1 <0>        -0.5422 
      23 N3        -1.0054    0.4068    2.9548 N.am      1 <0>        -0.7214 
      24 C16       -1.4343    1.2939    1.8640 C.3       1 <0>         0.2043 
      25 C17       -1.0690    0.6718    0.5374 C.2       1 <0>        -0.0464 
      26 C18       -0.4578   -0.5069    0.3565 C.2       1 <0>        -0.1782 
      27 C19       -0.3549   -0.6130   -1.1161 C.2       1 <0>        -0.2183 
      28 C20       -0.9285    0.5061   -1.5667 C.2       1 <0>        -0.0240 
      29 O6        -1.4092    1.3920   -0.6053 O.3       1 <0>        -0.1712 
      30 H1         2.5987    9.2562   10.7691 H         1 <0>         0.0628 
      31 H2         0.8781    9.3032   11.2113 H         1 <0>         0.0628 
      32 H3         1.8370    7.8407   11.5269 H         1 <0>         0.0640 
      33 H4         1.1746    8.9624    8.7738 H         1 <0>         0.0966 
      34 H5         0.3927    7.5584    9.5326 H         1 <0>         0.0966 
      35 H6         3.0604    6.0613    7.4299 H         1 <0>         0.4131 
      36 H7         0.8541    7.9337    6.9691 H         1 <0>         0.1171 
      37 H8         1.3247    6.5793    5.9195 H         1 <0>         0.1171 
      38 H9        -1.9696    4.2292    7.4348 H         1 <0>         0.1185 
      39 H10       -0.3523    4.0880   10.0120 H         1 <0>         0.0777 
      40 H11       -1.4671    5.3937    9.5536 H         1 <0>         0.0803 
      41 H12       -2.0926    3.7600    9.8655 H         1 <0>         0.0842 
      42 H13       -0.4990    2.5651    5.8498 H         1 <0>         0.4245 
      43 H14        0.2424    0.2788    8.6159 H         1 <0>         0.1486 
      44 H15        0.7586   -2.1284    8.3032 H         1 <0>         0.1348 
      45 H16        0.5468   -3.1655    6.0567 H         1 <0>         0.1332 
      46 H17       -0.2733   -1.8297    4.1435 H         1 <0>         0.1296 
      47 H18       -0.8312   -0.5713    2.7725 H         1 <0>         0.4054 
      48 H19       -0.9369    2.2564    1.9633 H         1 <0>         0.1035 
      49 H20       -2.5118    1.4349    1.9146 H         1 <0>         0.0890 
      50 H21       -0.1131   -1.2258    1.0851 H         1 <0>         0.1520 
      51 H22        0.0778   -1.4141   -1.6968 H         1 <0>         0.1526 
      52 H23       -1.0290    0.7600   -2.6116 H         1 <0>         0.2068 
@<TRIPOS>BOND
       1        1        2 1        
       2        1       30 1        
       3        1       31 1        
       4        1       32 1        
       5        2        3 1        
       6        2       33 1        
       7        2       34 1        
       8        3        4 2        
       9        3        5 am       
      10        5        6 1        
      11        5       35 1        
      12        6        7 1        
      13        6       36 1        
      14        6       37 1        
      15        7        8 2        
      16        7        9 1        
      17        9       10 1        
      18       10       11 1        
      19       10       12 1        
      20       10       38 1        
      21       11       39 1        
      22       11       40 1        
      23       11       41 1        
      24       12       13 2        
      25       12       14 am       
      26       14       15 1        
      27       14       42 1        
      28       15       20 ar       
      29       15       16 ar       
      30       16       17 ar       
      31       16       43 1        
      32       17       18 ar       
      33       17       44 1        
      34       18       19 ar       
      35       18       45 1        
      36       19       20 ar       
      37       19       46 1        
      38       20       21 1        
      39       21       22 2        
      40       21       23 am       
      41       23       24 1        
      42       23       47 1        
      43       24       25 1        
      44       24       48 1        
      45       24       49 1        
      46       25       29 1        
      47       25       26 2        
      48       26       27 1        
      49       26       50 1        
      50       27       28 2        
      51       27       51 1        
      52       28       29 1        
      53       28       52 1        

