#        1GCZ_R01_S0001_C0000_L00017_S0001_C0048_G0010_E0001.mol2
#        Tue Jun  6 14:19:50 2017
#        Descriptor:     18     3     6     9     6    14
#        Energy - RMSD - RMSD MassCentre:     -69.6501    999.9999    999.9999
#        Receptor:       1  Surface Point:     1  Conformer:     0
#        Ligand:        17  Surface Point:     1  Conformer:    48
#        BUDE Formal Charge: 0
#        ATOM Count: 52
#        Heavy ATOM Count: 29
@<TRIPOS>MOLECULE
ZINC61282001_1GCZ_R01_S0001_C0000_L00017_S0001_C0048_G0010_E0001
 52 53 0 0 0
SMALL
USER_CHARGES
@<TRIPOS>ATOM
       1 C1        -2.5699   -6.6492    9.6124 C.3       1 <0>        -0.1391 
       2 C2        -1.3554   -6.8123    8.7031 C.3       1 <0>        -0.1418 
       3 C3        -0.5377   -5.5430    8.7243 C.2       1 <0>         0.5169 
       4 O1         0.6273   -5.5675    9.1178 O.2       1 <0>        -0.5335 
       5 N1        -1.0778   -4.3977    8.3174 N.am      1 <0>        -0.7285 
       6 C4        -0.2819   -3.1622    8.3380 C.3       1 <0>         0.1288 
       7 C5         0.6803   -3.1648    7.1742 C.2       1 <0>         0.4630 
       8 O2         0.5676   -2.3548    6.3029 O.2       1 <0>        -0.4988 
       9 O3         1.6685   -4.0827    7.1182 O.3       1 <0>        -0.3175 
      10 C6         2.5553   -4.0459    5.9970 C.3       1 <0>         0.0731 
      11 C7         3.5441   -5.2044    6.0910 C.3       1 <0>        -0.1692 
      12 C8         3.3113   -2.7388    5.9969 C.2       1 <0>         0.5202 
      13 O4         4.5412   -2.7388    5.9970 O.2       1 <0>        -0.4963 
      14 N2         2.6468   -1.5867    5.9969 N.am      1 <0>        -0.6538 
      15 C9         3.3537   -0.3611    5.9970 C.ar      1 <0>         0.2101 
      16 C10        4.6802   -0.2875    6.4383 C.ar      1 <0>        -0.1321 
      17 C11        5.3241    0.9553    6.4677 C.ar      1 <0>        -0.0675 
      18 C12        4.6468    2.1112    6.0586 C.ar      1 <0>        -0.1401 
      19 C13        3.3323    2.0275    5.5843 C.ar      1 <0>        -0.0656 
      20 C14        2.6797    0.7891    5.5697 C.ar      1 <0>        -0.1718 
      21 C15        1.2777    0.6085    5.1311 C.2       1 <0>         0.5702 
      22 O5         0.7654   -0.5095    5.1550 O.2       1 <0>        -0.5422 
      23 N3         0.5726    1.6553    4.7115 N.am      1 <0>        -0.7214 
      24 C16       -0.8199    1.4759    4.2758 C.3       1 <0>         0.2043 
      25 C17       -0.8406    0.8120    2.9199 C.2       1 <0>        -0.0464 
      26 C18       -1.1346   -0.4714    2.6705 C.2       1 <0>        -0.1782 
      27 C19       -1.0041   -0.5694    1.1994 C.2       1 <0>        -0.2183 
      28 C20       -0.6683    0.6656    0.8166 C.2       1 <0>        -0.0240 
      29 O6        -0.5320    1.6164    1.8254 O.3       1 <0>        -0.1712 
      30 H1        -3.1851   -5.8278    9.2511 H         1 <0>         0.0628 
      31 H2        -3.1519   -7.5685    9.6075 H         1 <0>         0.0628 
      32 H3        -2.2371   -6.4353   10.6259 H         1 <0>         0.0640 
      33 H4        -1.6870   -7.0124    7.6864 H         1 <0>         0.0966 
      34 H5        -0.7459   -7.6415    9.0562 H         1 <0>         0.0966 
      35 H6        -2.0345   -4.3765    7.9941 H         1 <0>         0.4131 
      36 H7        -0.9437   -2.3022    8.2587 H         1 <0>         0.1171 
      37 H8         0.2770   -3.1055    9.2697 H         1 <0>         0.1171 
      38 H9         1.9811   -4.1320    5.0768 H         1 <0>         0.1185 
      39 H10        4.1089   -5.1240    7.0174 H         1 <0>         0.0777 
      40 H11        3.0003   -6.1464    6.0776 H         1 <0>         0.0803 
      41 H12        4.2270   -5.1671    5.2449 H         1 <0>         0.0842 
      42 H13        1.6369   -1.5867    5.9970 H         1 <0>         0.4245 
      43 H14        5.1983   -1.1795    6.7579 H         1 <0>         0.1486 
      44 H15        6.3441    1.0210    6.8163 H         1 <0>         0.1348 
      45 H16        5.1394    3.0713    6.1008 H         1 <0>         0.1332 
      46 H17        2.8281    2.9162    5.2343 H         1 <0>         0.1296 
      47 H18        0.9943    2.5729    4.6923 H         1 <0>         0.4054 
      48 H19       -1.3073    2.4466    4.2127 H         1 <0>         0.1035 
      49 H20       -1.3463    0.8512    4.9943 H         1 <0>         0.0890 
      50 H21       -1.4046   -1.2639    3.3526 H         1 <0>         0.1520 
      51 H22       -1.1529   -1.4377    0.5747 H         1 <0>         0.1526 
      52 H23       -0.4915    0.9580   -0.2079 H         1 <0>         0.2068 
@<TRIPOS>BOND
       1        1        2 1        
       2        1       30 1        
       3        1       31 1        
       4        1       32 1        
       5        2        3 1        
       6        2       33 1        
       7        2       34 1        
       8        3        4 2        
       9        3        5 am       
      10        5        6 1        
      11        5       35 1        
      12        6        7 1        
      13        6       36 1        
      14        6       37 1        
      15        7        8 2        
      16        7        9 1        
      17        9       10 1        
      18       10       11 1        
      19       10       12 1        
      20       10       38 1        
      21       11       39 1        
      22       11       40 1        
      23       11       41 1        
      24       12       13 2        
      25       12       14 am       
      26       14       15 1        
      27       14       42 1        
      28       15       20 ar       
      29       15       16 ar       
      30       16       17 ar       
      31       16       43 1        
      32       17       18 ar       
      33       17       44 1        
      34       18       19 ar       
      35       18       45 1        
      36       19       20 ar       
      37       19       46 1        
      38       20       21 1        
      39       21       22 2        
      40       21       23 am       
      41       23       24 1        
      42       23       47 1        
      43       24       25 1        
      44       24       48 1        
      45       24       49 1        
      46       25       29 1        
      47       25       26 2        
      48       26       27 1        
      49       26       50 1        
      50       27       28 2        
      51       27       51 1        
      52       28       29 1        
      53       28       52 1        

