#        1GCZ_R01_S0001_C0000_L00003_S0001_C0039_G0010_E0001.mol2
#        Tue Jun  6 14:04:46 2017
#        Descriptor:     30     6    16     8    10    12
#        Energy - RMSD - RMSD MassCentre:     -66.9822    999.9999    999.9999
#        Receptor:       1  Surface Point:     1  Conformer:     0
#        Ligand:         3  Surface Point:     1  Conformer:    39
#        BUDE Formal Charge: 0
#        ATOM Count: 58
#        Heavy ATOM Count: 30
@<TRIPOS>MOLECULE
ZINC61580633_1GCZ_R01_S0001_C0000_L00003_S0001_C0039_G0010_E0001
 58 59 0 0 0
SMALL
USER_CHARGES
@<TRIPOS>ATOM
       1 C1        -0.2392    0.1568   -2.8956 C.3       1 <0>        -0.1532 
       2 C2         0.1195    1.5853   -2.4964 C.3       1 <0>        -0.1224 
       3 C3        -1.0678    2.2261   -1.7791 C.3       1 <0>        -0.1198 
       4 C4        -1.3919    1.4266   -0.5180 C.3       1 <0>         0.0610 
       5 O1        -0.2802    1.4825    0.3797 O.3       1 <0>        -0.3878 
       6 C5        -0.5266    0.7491    1.5824 C.3       1 <0>         0.0487 
       7 C6        -1.7343    1.3460    2.3034 C.3       1 <0>         0.1244 
       8 N1        -1.9876    0.5921    3.5396 N.am      1 <0>        -0.7216 
       9 C7        -2.4883   -0.6384    3.4768 C.2       1 <0>         0.5161 
      10 O2        -2.7394   -1.1460    2.3852 O.2       1 <0>        -0.5151 
      11 C8        -2.7485   -1.4128    4.7468 C.3       1 <0>         0.0490 
      12 O3        -1.5023   -1.7706    5.3497 O.3       1 <0>        -0.3194 
      13 C9        -0.6914   -0.7750    5.7666 C.2       1 <0>         0.5417 
      14 O4        -1.0299    0.3884    5.6242 O.2       1 <0>        -0.5337 
      15 C10        0.6088   -1.0950    6.3967 C.2       1 <0>        -0.2559 
      16 C11        1.1099   -2.4680    6.6296 C.2       1 <0>        -0.0791 
      17 C12        2.3041   -2.4793    7.2262 C.2       1 <0>        -0.2585 
      18 S1         2.9215   -0.8522    7.5485 S.3       1 <0>         0.3028 
      19 C13        1.4602   -0.1564    6.8323 C.2       1 <0>         0.0893 
      20 N2         1.1876    1.1819    6.7257 N.am      1 <0>        -0.6099 
      21 C14        2.0634    2.0775    7.1726 C.2       1 <0>         0.5551 
      22 O5         3.1190    1.7040    7.6817 O.2       1 <0>        -0.4939 
      23 C15        1.7674    3.5229    7.0567 C.ar      1 <0>        -0.1466 
      24 C16        2.7158    4.4309    7.5428 C.ar      1 <0>        -0.0772 
      25 C17        2.4608    5.8073    7.5283 C.ar      1 <0>        -0.1241 
      26 C18        1.2470    6.3011    7.0363 C.ar      1 <0>        -0.0446 
      27 C19        0.3190    5.3999    6.5009 C.ar      1 <0>        -0.1261 
      28 C20        0.5902    4.0265    6.4905 C.ar      1 <0>        -0.0460 
      29 C21        0.9656    7.7839    7.0866 C.3       1 <0>        -0.0928 
      30 C22        0.2738    8.1251    8.4032 C.3       1 <0>        -0.1485 
      31 H1        -1.0919    0.1730   -3.5711 H         1 <0>         0.0567 
      32 H2        -0.4919   -0.4152   -2.0053 H         1 <0>         0.0554 
      33 H3         0.6108   -0.3040   -3.3944 H         1 <0>         0.0557 
      34 H4         0.9801    1.5713   -1.8307 H         1 <0>         0.0632 
      35 H5         0.3588    2.1623   -3.3872 H         1 <0>         0.0635 
      36 H6        -0.8178    3.2488   -1.5050 H         1 <0>         0.0711 
      37 H7        -1.9329    2.2280   -2.4389 H         1 <0>         0.0704 
      38 H8        -2.2694    1.8507   -0.0344 H         1 <0>         0.0498 
      39 H9        -1.5894    0.3906   -0.7855 H         1 <0>         0.0505 
      40 H10        0.3464    0.8077    2.2290 H         1 <0>         0.0584 
      41 H11       -0.7287   -0.2917    1.3382 H         1 <0>         0.0702 
      42 H12       -2.6082    1.2873    1.6581 H         1 <0>         0.0872 
      43 H13       -1.5330    2.3866    2.5488 H         1 <0>         0.0805 
      44 H14       -1.7817    1.0080    4.4367 H         1 <0>         0.4058 
      45 H15       -3.3210   -0.7968    5.4371 H         1 <0>         0.1008 
      46 H16       -3.3100   -2.3150    4.5135 H         1 <0>         0.0999 
      47 H17        0.5594   -3.3478    6.3310 H         1 <0>         0.1557 
      48 H18        2.8294   -3.3916    7.4670 H         1 <0>         0.1929 
      49 H19        0.3209    1.4887    6.3077 H         1 <0>         0.4317 
      50 H20        3.6531    4.0677    7.9377 H         1 <0>         0.1287 
      51 H21        3.2025    6.4985    7.9002 H         1 <0>         0.1326 
      52 H22       -0.6062    5.7793    6.0929 H         1 <0>         0.1342 
      53 H23       -0.1357    3.3861    6.0116 H         1 <0>         0.1410 
      54 H24        0.3198    8.0582    6.2551 H         1 <0>         0.0777 
      55 H25        1.9023    8.3327    7.0154 H         1 <0>         0.0771 
      56 H26        0.9257    7.8619    9.2335 H         1 <0>         0.0623 
      57 H27       -0.6558    7.5649    8.4795 H         1 <0>         0.0572 
      58 H28        0.0591    9.1913    8.4336 H         1 <0>         0.0578 
@<TRIPOS>BOND
       1        1        2 1        
       2        1       31 1        
       3        1       32 1        
       4        1       33 1        
       5        2        3 1        
       6        2       34 1        
       7        2       35 1        
       8        3        4 1        
       9        3       36 1        
      10        3       37 1        
      11        4        5 1        
      12        4       38 1        
      13        4       39 1        
      14        5        6 1        
      15        6        7 1        
      16        6       40 1        
      17        6       41 1        
      18        7        8 1        
      19        7       42 1        
      20        7       43 1        
      21        8        9 am       
      22        8       44 1        
      23        9       10 2        
      24        9       11 1        
      25       11       12 1        
      26       11       45 1        
      27       11       46 1        
      28       12       13 1        
      29       13       14 2        
      30       13       15 1        
      31       15       19 2        
      32       15       16 1        
      33       16       17 2        
      34       16       47 1        
      35       17       18 1        
      36       17       48 1        
      37       18       19 1        
      38       19       20 1        
      39       20       21 am       
      40       20       49 1        
      41       21       22 2        
      42       21       23 1        
      43       23       28 ar       
      44       23       24 ar       
      45       24       25 ar       
      46       24       50 1        
      47       25       26 ar       
      48       25       51 1        
      49       26       27 ar       
      50       26       29 1        
      51       27       28 ar       
      52       27       52 1        
      53       28       53 1        
      54       29       30 1        
      55       29       54 1        
      56       29       55 1        
      57       30       56 1        
      58       30       57 1        
      59       30       58 1        

