#        1GCZ_R01_S0001_C0000_L00017_S0001_C0049_G0010_E0001.mol2
#        Tue Jun  6 10:01:41 2017
#        Descriptor:     23     3    36     8    11    15
#        Energy - RMSD - RMSD MassCentre:     -64.0675    999.9999    999.9999
#        Receptor:       1  Surface Point:     1  Conformer:     0
#        Ligand:        17  Surface Point:     1  Conformer:    49
#        BUDE Formal Charge: 0
#        ATOM Count: 52
#        Heavy ATOM Count: 29
@<TRIPOS>MOLECULE
ZINC61282001_1GCZ_R01_S0001_C0000_L00017_S0001_C0049_G0010_E0001
 52 53 0 0 0
SMALL
USER_CHARGES
@<TRIPOS>ATOM
       1 C1        -0.9076    2.3682    9.6970 C.3       1 <0>        -0.1391 
       2 C2        -2.2550    1.6636    9.8260 C.3       1 <0>        -0.1418 
       3 C3        -2.3496    0.5669    8.7923 C.2       1 <0>         0.5169 
       4 O1        -3.2357    0.5989    7.9398 O.2       1 <0>        -0.5335 
       5 N1        -1.4742   -0.4343    8.8037 N.am      1 <0>        -0.7285 
       6 C4        -1.5662   -1.5018    7.7974 C.3       1 <0>         0.1288 
       7 C5        -1.0286   -0.9977    6.4795 C.2       1 <0>         0.4630 
       8 O2        -0.0397   -1.4800    6.0130 O.2       1 <0>        -0.4988 
       9 O3        -1.6656   -0.0019    5.8277 O.3       1 <0>        -0.3175 
      10 C6        -1.1192    0.4421    4.5831 C.3       1 <0>         0.0731 
      11 C7        -1.0182   -0.7379    3.6208 C.3       1 <0>        -0.1692 
      12 C8         0.2564    1.0199    4.8159 C.2       1 <0>         0.5202 
      13 O4         1.2245    0.5707    4.2044 O.2       1 <0>        -0.4963 
      14 N2         0.4214    2.0149    5.6827 N.am      1 <0>        -0.6538 
      15 C9         1.7097    2.5572    5.9020 C.ar      1 <0>         0.2101 
      16 C10        2.8659    1.8281    5.5998 C.ar      1 <0>        -0.1321 
      17 C11        4.1194    2.3852    5.8799 C.ar      1 <0>        -0.0675 
      18 C12        4.2133    3.6588    6.4555 C.ar      1 <0>        -0.1401 
      19 C13        3.0554    4.3987    6.7228 C.ar      1 <0>        -0.0656 
      20 C14        1.8000    3.8380    6.4599 C.ar      1 <0>        -0.1718 
      21 C15        0.5209    4.5230    6.7518 C.2       1 <0>         0.5702 
      22 O5        -0.5463    3.9640    6.5033 O.2       1 <0>        -0.5422 
      23 N3         0.5261    5.7425    7.2826 N.am      1 <0>        -0.7214 
      24 C16       -0.7444    6.4228    7.5725 C.3       1 <0>         0.2043 
      25 C17       -0.5043    7.9094    7.6832 C.2       1 <0>        -0.0464 
      26 C18        0.6713    8.5354    7.5353 C.2       1 <0>        -0.1782 
      27 C19        0.3256    9.9595    7.7430 C.2       1 <0>        -0.2183 
      28 C20       -0.9914    9.9485    7.9667 C.2       1 <0>        -0.0240 
      29 O6        -1.6157    8.7032    7.9572 O.3       1 <0>        -0.1712 
      30 H1        -0.8233    2.8097    8.7061 H         1 <0>         0.0628 
      31 H2        -0.8340    3.1496   10.4504 H         1 <0>         0.0628 
      32 H3        -0.1065    1.6466    9.8424 H         1 <0>         0.0640 
      33 H4        -3.0570    2.3814    9.6667 H         1 <0>         0.0966 
      34 H5        -2.3456    1.2323   10.8207 H         1 <0>         0.0966 
      35 H6        -0.7462   -0.4616    9.5033 H         1 <0>         0.4131 
      36 H7        -0.9812   -2.3594    8.1229 H         1 <0>         0.1171 
      37 H8        -2.6063   -1.7971    7.6750 H         1 <0>         0.1171 
      38 H9        -1.7648    1.2061    4.1548 H         1 <0>         0.1185 
      39 H10       -0.3824   -1.5062    4.0557 H         1 <0>         0.0777 
      40 H11       -2.0109   -1.1456    3.4427 H         1 <0>         0.0803 
      41 H12       -0.5893   -0.4015    2.6793 H         1 <0>         0.0842 
      42 H13       -0.3735    2.3837    6.1849 H         1 <0>         0.4245 
      43 H14        2.7904    0.8443    5.1608 H         1 <0>         0.1486 
      44 H15        5.0154    1.8243    5.6586 H         1 <0>         0.1348 
      45 H16        5.1810    4.0779    6.6885 H         1 <0>         0.1332 
      46 H17        3.1352    5.3955    7.1311 H         1 <0>         0.1296 
      47 H18        1.4030    6.2005    7.4862 H         1 <0>         0.4054 
      48 H19       -1.1492    6.0492    8.5107 H         1 <0>         0.1035 
      49 H20       -1.4511    6.2278    6.7687 H         1 <0>         0.0890 
      50 H21        1.6480    8.1294    7.3174 H         1 <0>         0.1520 
      51 H22        0.9840   10.8150    7.7139 H         1 <0>         0.1526 
      52 H23       -1.5832   10.8309    8.1594 H         1 <0>         0.2068 
@<TRIPOS>BOND
       1        1        2 1        
       2        1       30 1        
       3        1       31 1        
       4        1       32 1        
       5        2        3 1        
       6        2       33 1        
       7        2       34 1        
       8        3        4 2        
       9        3        5 am       
      10        5        6 1        
      11        5       35 1        
      12        6        7 1        
      13        6       36 1        
      14        6       37 1        
      15        7        8 2        
      16        7        9 1        
      17        9       10 1        
      18       10       11 1        
      19       10       12 1        
      20       10       38 1        
      21       11       39 1        
      22       11       40 1        
      23       11       41 1        
      24       12       13 2        
      25       12       14 am       
      26       14       15 1        
      27       14       42 1        
      28       15       20 ar       
      29       15       16 ar       
      30       16       17 ar       
      31       16       43 1        
      32       17       18 ar       
      33       17       44 1        
      34       18       19 ar       
      35       18       45 1        
      36       19       20 ar       
      37       19       46 1        
      38       20       21 1        
      39       21       22 2        
      40       21       23 am       
      41       23       24 1        
      42       23       47 1        
      43       24       25 1        
      44       24       48 1        
      45       24       49 1        
      46       25       29 1        
      47       25       26 2        
      48       26       27 1        
      49       26       50 1        
      50       27       28 2        
      51       27       51 1        
      52       28       29 1        
      53       28       52 1        

