#        1GCZ_R01_S0001_C0000_L00017_S0001_C0049_G0010_E0001.mol2
#        Tue Jun  6 14:19:52 2017
#        Descriptor:     13     1    15     9     8    14
#        Energy - RMSD - RMSD MassCentre:     -67.3647    999.9999    999.9999
#        Receptor:       1  Surface Point:     1  Conformer:     0
#        Ligand:        17  Surface Point:     1  Conformer:    49
#        BUDE Formal Charge: 0
#        ATOM Count: 52
#        Heavy ATOM Count: 29
@<TRIPOS>MOLECULE
ZINC61282001_1GCZ_R01_S0001_C0000_L00017_S0001_C0049_G0010_E0001
 52 53 0 0 0
SMALL
USER_CHARGES
@<TRIPOS>ATOM
       1 C1        -0.8874   -2.2090    6.2334 C.3       1 <0>        -0.1391 
       2 C2        -0.3113   -3.5761    6.5910 C.3       1 <0>        -0.1418 
       3 C3         0.7063   -3.4192    7.6957 C.2       1 <0>         0.5169 
       4 O1         1.8754   -3.7521    7.5078 O.2       1 <0>        -0.5335 
       5 N1         0.3380   -2.9209    8.8725 N.am      1 <0>        -0.7285 
       6 C4         1.3285   -2.7682    9.9478 C.3       1 <0>         0.1288 
       7 C5         2.1937   -1.5630    9.6664 C.2       1 <0>         0.4630 
       8 O2         2.1576   -0.6173   10.3960 O.2       1 <0>        -0.4988 
       9 O3         3.0087   -1.5542    8.5903 O.3       1 <0>        -0.3175 
      10 C6         3.8092   -0.3909    8.3648 C.3       1 <0>         0.0731 
      11 C7         4.6756   -0.1226    9.5920 C.3       1 <0>        -0.1692 
      12 C8         2.9106    0.7966    8.1147 C.2       1 <0>         0.5202 
      13 O4         3.0094    1.8021    8.8162 O.2       1 <0>        -0.4963 
      14 N2         2.0116    0.7553    7.1355 N.am      1 <0>        -0.6538 
      15 C9         1.1688    1.8672    6.9000 C.ar      1 <0>         0.2101 
      16 C10        0.9239    2.8174    7.8984 C.ar      1 <0>        -0.1321 
      17 C11        0.0436    3.8742    7.6366 C.ar      1 <0>        -0.0675 
      18 C12       -0.5833    3.9781    6.3883 C.ar      1 <0>        -0.1401 
      19 C13       -0.3077    3.0457    5.3812 C.ar      1 <0>        -0.0656 
      20 C14        0.5587    1.9782    5.6450 C.ar      1 <0>        -0.1718 
      21 C15        0.8743    0.9185    4.6610 C.2       1 <0>         0.5702 
      22 O5         1.6376    0.0037    4.9666 O.2       1 <0>        -0.5422 
      23 N3         0.3324    0.9562    3.4470 N.am      1 <0>        -0.7214 
      24 C16        0.6459   -0.0962    2.4698 C.3       1 <0>         0.2043 
      25 C17        0.3427    0.4043    1.0778 C.2       1 <0>        -0.0464 
      26 C18       -0.1296    1.6166    0.7571 C.2       1 <0>        -0.1782 
      27 C19       -0.2330    1.5607   -0.7184 C.2       1 <0>        -0.2183 
      28 C20        0.2031    0.3377   -1.0320 C.2       1 <0>        -0.0240 
      29 O6         0.5870   -0.4793    0.0290 O.3       1 <0>        -0.1712 
      30 H1        -0.0874   -1.5586    5.8858 H         1 <0>         0.0628 
      31 H2        -1.6301   -2.3237    5.4468 H         1 <0>         0.0628 
      32 H3        -1.3545   -1.7718    7.1133 H         1 <0>         0.0640 
      33 H4         0.1686   -4.0083    5.7154 H         1 <0>         0.0966 
      34 H5        -1.1123   -4.2313    6.9270 H         1 <0>         0.0966 
      35 H6        -0.6218   -2.6473    9.0278 H         1 <0>         0.4131 
      36 H7         0.8157   -2.6319   10.8976 H         1 <0>         0.1171 
      37 H8         1.9523   -3.6583    9.9963 H         1 <0>         0.1171 
      38 H9         4.4468   -0.5512    7.4979 H         1 <0>         0.1185 
      39 H10        4.0371    0.0252   10.4605 H         1 <0>         0.0777 
      40 H11        5.3323   -0.9726    9.7643 H         1 <0>         0.0803 
      41 H12        5.2736    0.7706    9.4247 H         1 <0>         0.0842 
      42 H13        1.9304   -0.0704    6.5596 H         1 <0>         0.4245 
      43 H14        1.4047    2.7320    8.8616 H         1 <0>         0.1486 
      44 H15       -0.1577    4.6053    8.4055 H         1 <0>         0.1348 
      45 H16       -1.2768    4.7832    6.1958 H         1 <0>         0.1332 
      46 H17       -0.7644    3.1525    4.4083 H         1 <0>         0.1296 
      47 H18       -0.2943    1.7079    3.1972 H         1 <0>         0.4054 
      48 H19        0.0414   -0.9764    2.6791 H         1 <0>         0.1035 
      49 H20        1.7003   -0.3544    2.5415 H         1 <0>         0.0890 
      50 H21       -0.3822    2.4509    1.3945 H         1 <0>         0.1520 
      51 H22       -0.5755    2.3331   -1.3910 H         1 <0>         0.1526 
      52 H23        0.2640   -0.0469   -2.0393 H         1 <0>         0.2068 
@<TRIPOS>BOND
       1        1        2 1        
       2        1       30 1        
       3        1       31 1        
       4        1       32 1        
       5        2        3 1        
       6        2       33 1        
       7        2       34 1        
       8        3        4 2        
       9        3        5 am       
      10        5        6 1        
      11        5       35 1        
      12        6        7 1        
      13        6       36 1        
      14        6       37 1        
      15        7        8 2        
      16        7        9 1        
      17        9       10 1        
      18       10       11 1        
      19       10       12 1        
      20       10       38 1        
      21       11       39 1        
      22       11       40 1        
      23       11       41 1        
      24       12       13 2        
      25       12       14 am       
      26       14       15 1        
      27       14       42 1        
      28       15       20 ar       
      29       15       16 ar       
      30       16       17 ar       
      31       16       43 1        
      32       17       18 ar       
      33       17       44 1        
      34       18       19 ar       
      35       18       45 1        
      36       19       20 ar       
      37       19       46 1        
      38       20       21 1        
      39       21       22 2        
      40       21       23 am       
      41       23       24 1        
      42       23       47 1        
      43       24       25 1        
      44       24       48 1        
      45       24       49 1        
      46       25       29 1        
      47       25       26 2        
      48       26       27 1        
      49       26       50 1        
      50       27       28 2        
      51       27       51 1        
      52       28       29 1        
      53       28       52 1        

