#        1GCZ_R01_S0001_C0000_L00017_S0001_C0050_G0010_E0001.mol2
#        Tue Jun  6 10:01:42 2017
#        Descriptor:     23     3    35     8    11    15
#        Energy - RMSD - RMSD MassCentre:     -63.2287    999.9999    999.9999
#        Receptor:       1  Surface Point:     1  Conformer:     0
#        Ligand:        17  Surface Point:     1  Conformer:    50
#        BUDE Formal Charge: 0
#        ATOM Count: 52
#        Heavy ATOM Count: 29
@<TRIPOS>MOLECULE
ZINC61282001_1GCZ_R01_S0001_C0000_L00017_S0001_C0050_G0010_E0001
 52 53 0 0 0
SMALL
USER_CHARGES
@<TRIPOS>ATOM
       1 C1        -3.1908    3.2135    9.5992 C.3       1 <0>        -0.1391 
       2 C2        -2.2706    2.0190    9.8341 C.3       1 <0>        -0.1418 
       3 C3        -2.5542    0.9554    8.8004 C.2       1 <0>         0.5169 
       4 O1        -3.4212    1.1408    7.9479 O.2       1 <0>        -0.5335 
       5 N1        -1.8660   -0.1826    8.8118 N.am      1 <0>        -0.7285 
       6 C4        -2.1420   -1.2180    7.8056 C.3       1 <0>         0.1288 
       7 C5        -1.5249   -0.8149    6.4877 C.2       1 <0>         0.4630 
       8 O2        -0.6348   -1.4615    6.0212 O.2       1 <0>        -0.4988 
       9 O3        -1.9793    0.2765    5.8359 O.3       1 <0>        -0.3175 
      10 C6        -1.3641    0.6189    4.5913 C.3       1 <0>         0.0731 
      11 C7        -1.4696   -0.5608    3.6289 C.3       1 <0>        -0.1692 
      12 C8         0.0909    0.9489    4.8240 C.2       1 <0>         0.5202 
      13 O4         0.9662    0.3384    4.2125 O.2       1 <0>        -0.4963 
      14 N2         0.4262    1.9002    5.6909 N.am      1 <0>        -0.6538 
      15 C9         1.7891    2.2105    5.9102 C.ar      1 <0>         0.2101 
      16 C10        2.8011    1.2917    5.6080 C.ar      1 <0>        -0.1321 
      17 C11        4.1323    1.6227    5.8881 C.ar      1 <0>        -0.0675 
      18 C12        4.4460    2.8606    6.4637 C.ar      1 <0>        -0.1401 
      19 C13        3.4341    3.7904    6.7310 C.ar      1 <0>        -0.0656 
      20 C14        2.1004    3.4562    6.4681 C.ar      1 <0>        -0.1718 
      21 C15        0.9596    4.3529    6.7600 C.2       1 <0>         0.5702 
      22 O5        -0.1883    3.9877    6.5115 O.2       1 <0>        -0.5422 
      23 N3         1.1765    5.5529    7.2908 N.am      1 <0>        -0.7214 
      24 C16        0.0435    6.4435    7.5806 C.3       1 <0>         0.2043 
      25 C17        0.5381    7.8659    7.6914 C.2       1 <0>        -0.0464 
      26 C18        1.8045    8.2782    7.5435 C.2       1 <0>        -0.1782 
      27 C19        1.7114    9.7407    7.7512 C.2       1 <0>        -0.2183 
      28 C20        0.4125    9.9585    7.9748 C.2       1 <0>        -0.0240 
      29 O6        -0.4185    8.8406    7.9654 O.3       1 <0>        -0.1712 
      30 H1        -4.2271    2.8965    9.6951 H         1 <0>         0.0628 
      31 H2        -2.9773    3.9852   10.3357 H         1 <0>         0.0628 
      32 H3        -3.0228    3.6088    8.5996 H         1 <0>         0.0640 
      33 H4        -2.4477    1.6140   10.8282 H         1 <0>         0.0966 
      34 H5        -1.2336    2.3375    9.7509 H         1 <0>         0.0966 
      35 H6        -1.1538   -0.3359    9.5115 H         1 <0>         0.4131 
      36 H7        -1.7147   -2.1641    8.1311 H         1 <0>         0.1171 
      37 H8        -3.2175   -1.3281    7.6832 H         1 <0>         0.1171 
      38 H9        -1.8673    1.4833    4.1630 H         1 <0>         0.1185 
      39 H10       -0.9768   -1.4278    4.0638 H         1 <0>         0.0777 
      40 H11       -2.5180   -0.7900    3.4509 H         1 <0>         0.0803 
      41 H12       -0.9888   -0.3040    2.6874 H         1 <0>         0.0842 
      42 H13       -0.2926    2.4014    6.1930 H         1 <0>         0.4245 
      43 H14        2.5559    0.3360    5.1690 H         1 <0>         0.1486 
      44 H15        4.9173    0.9148    5.6668 H         1 <0>         0.1348 
      45 H16        5.4717    3.1054    6.6967 H         1 <0>         0.1332 
      46 H17        3.6858    4.7582    7.1393 H         1 <0>         0.1296 
      47 H18        2.1197    5.8518    7.4943 H         1 <0>         0.4054 
      48 H19       -0.4200    6.1459    8.5189 H         1 <0>         0.1035 
      49 H20       -0.6863    6.3742    6.7769 H         1 <0>         0.0890 
      50 H21        2.6959    7.7088    7.3256 H         1 <0>         0.1520 
      51 H22        2.5083   10.4689    7.7220 H         1 <0>         0.1526 
      52 H23       -0.0171   10.9304    8.1676 H         1 <0>         0.2068 
@<TRIPOS>BOND
       1        1        2 1        
       2        1       30 1        
       3        1       31 1        
       4        1       32 1        
       5        2        3 1        
       6        2       33 1        
       7        2       34 1        
       8        3        4 2        
       9        3        5 am       
      10        5        6 1        
      11        5       35 1        
      12        6        7 1        
      13        6       36 1        
      14        6       37 1        
      15        7        8 2        
      16        7        9 1        
      17        9       10 1        
      18       10       11 1        
      19       10       12 1        
      20       10       38 1        
      21       11       39 1        
      22       11       40 1        
      23       11       41 1        
      24       12       13 2        
      25       12       14 am       
      26       14       15 1        
      27       14       42 1        
      28       15       20 ar       
      29       15       16 ar       
      30       16       17 ar       
      31       16       43 1        
      32       17       18 ar       
      33       17       44 1        
      34       18       19 ar       
      35       18       45 1        
      36       19       20 ar       
      37       19       46 1        
      38       20       21 1        
      39       21       22 2        
      40       21       23 am       
      41       23       24 1        
      42       23       47 1        
      43       24       25 1        
      44       24       48 1        
      45       24       49 1        
      46       25       29 1        
      47       25       26 2        
      48       26       27 1        
      49       26       50 1        
      50       27       28 2        
      51       27       51 1        
      52       28       29 1        
      53       28       52 1        

