#        1GCZ_R01_S0001_C0000_L00018_S0001_C0000_G0010_E0001.mol2
#        Tue Jun  6 10:01:43 2017
#        Descriptor:     23    11     4     9     8    11
#        Energy - RMSD - RMSD MassCentre:     -81.6744    999.9999    999.9999
#        Receptor:       1  Surface Point:     1  Conformer:     0
#        Ligand:        18  Surface Point:     1  Conformer:     0
#        BUDE Formal Charge: 0
#        ATOM Count: 49
#        Heavy ATOM Count: 26
@<TRIPOS>MOLECULE
ZINC61234769_1GCZ_R01_S0001_C0000_L00018_S0001_C0000_G0010_E0001
 49 52 0 0 0
SMALL
USER_CHARGES
@<TRIPOS>ATOM
       1 C1         6.7644   -0.7926    6.2910 C.3       1 <0>        -0.1123 
       2 C2         5.3057   -0.7604    5.9136 C.ar      1 <0>        -0.0676 
       3 C3         4.6823   -1.9192    5.4726 C.ar      1 <0>        -0.1270 
       4 C4         3.3611   -1.9108    5.1257 C.ar      1 <0>        -0.0597 
       5 C5         2.6253   -0.7261    5.2147 C.ar      1 <0>         0.0438 
       6 C6         3.2560    0.4473    5.6616 C.ar      1 <0>         0.0549 
       7 C7         4.5984    0.4185    6.0143 C.ar      1 <0>        -0.1151 
       8 N1         2.2881    1.4314    5.6413 N.pl3     1 <0>        -0.5955 
       9 C8         1.1364    0.8574    5.2000 C.2       1 <0>         0.2789 
      10 N2         1.3330   -0.4044    4.9504 N.2       1 <0>        -0.4719 
      11 C9        -0.1758    1.5776    5.0262 C.3       1 <0>         0.2183 
      12 C10       -0.9629    1.5621    6.3536 C.3       1 <0>        -0.1243 
      13 C11       -2.4284    1.3586    5.8862 C.3       1 <0>        -0.1305 
      14 C12       -2.2390    0.4200    4.6685 C.3       1 <0>         0.0988 
      15 N3        -0.9976    0.8846    4.0232 N.am      1 <0>        -0.6050 
      16 C13       -0.6704    0.7044    2.7283 C.2       1 <0>         0.5384 
      17 O1         0.3822    1.1317    2.3036 O.2       1 <0>        -0.5189 
      18 C14       -1.6124   -0.0283    1.8080 C.3       1 <0>        -0.0886 
      19 C15       -1.0154   -0.0932    0.4259 C.ar      1 <0>        -0.1068 
      20 C16       -1.2706    0.9160   -0.4842 C.ar      1 <0>        -0.0647 
      21 C17       -0.7248    0.8587   -1.7520 C.ar      1 <0>        -0.1512 
      22 C18        0.0804   -0.2124   -2.1115 C.ar      1 <0>         0.1282 
      23 C19        0.3353   -1.2235   -1.1964 C.ar      1 <0>        -0.2063 
      24 C20       -0.2087   -1.1588    0.0719 C.ar      1 <0>        -0.0603 
      25 O2         0.6180   -0.2713   -3.3583 O.3       1 <0>        -0.3185 
      26 C21        1.4369   -1.4032   -3.6588 C.3       1 <0>         0.0268 
      27 H1         6.8607   -1.0361    7.3491 H         1 <0>         0.0722 
      28 H2         7.2771   -1.5485    5.6962 H         1 <0>         0.0696 
      29 H3         7.2105    0.1836    6.1008 H         1 <0>         0.0660 
      30 H4         5.2475   -2.8367    5.4025 H         1 <0>         0.1292 
      31 H5         2.8860   -2.8181    4.7831 H         1 <0>         0.1276 
      32 H6         5.0874    1.3166    6.3620 H         1 <0>         0.1220 
      33 H7         0.0045    2.6056    4.7116 H         1 <0>         0.0955 
      34 H8        -0.6404    0.7329    6.9834 H         1 <0>         0.0847 
      35 H9        -0.8536    2.5113    6.8779 H         1 <0>         0.0905 
      36 H10       -3.0227    0.8765    6.6624 H         1 <0>         0.0915 
      37 H11       -2.8771    2.3049    5.5840 H         1 <0>         0.0820 
      38 H12       -2.1311   -0.6131    4.9990 H         1 <0>         0.0764 
      39 H13       -3.0810    0.5137    3.9827 H         1 <0>         0.0835 
      40 H14       -1.7729   -1.0394    2.1823 H         1 <0>         0.1032 
      41 H15       -2.5651    0.4998    1.7679 H         1 <0>         0.1017 
      42 H16       -1.8974    1.7496   -0.2038 H         1 <0>         0.1265 
      43 H17       -0.9250    1.6468   -2.4627 H         1 <0>         0.1306 
      44 H18        0.9617   -2.0582   -1.4739 H         1 <0>         0.1277 
      45 H19       -0.0069   -1.9434    0.7860 H         1 <0>         0.1227 
      46 H20        1.8015   -1.3262   -4.6831 H         1 <0>         0.1005 
      47 H21        2.2837   -1.4313   -2.9730 H         1 <0>         0.0555 
      48 H22        0.8503   -2.3154   -3.5494 H         1 <0>         0.0558 
      49 H23        2.4070    2.3601    5.8950 H         1 <0>         0.4211 
@<TRIPOS>BOND
       1        1        2 1        
       2        1       27 1        
       3        1       28 1        
       4        1       29 1        
       5        2        7 ar       
       6        2        3 ar       
       7        3        4 ar       
       8        3       30 1        
       9        4        5 ar       
      10        4       31 1        
      11        5       10 1        
      12        5        6 ar       
      13        6        7 ar       
      14        6        8 1        
      15        7       32 1        
      16        8        9 1        
      17        8       49 1        
      18        9       10 2        
      19        9       11 1        
      20       11       15 1        
      21       11       12 1        
      22       11       33 1        
      23       12       13 1        
      24       12       34 1        
      25       12       35 1        
      26       13       14 1        
      27       13       36 1        
      28       13       37 1        
      29       14       15 1        
      30       14       38 1        
      31       14       39 1        
      32       15       16 am       
      33       16       17 2        
      34       16       18 1        
      35       18       19 1        
      36       18       40 1        
      37       18       41 1        
      38       19       24 ar       
      39       19       20 ar       
      40       20       21 ar       
      41       20       42 1        
      42       21       22 ar       
      43       21       43 1        
      44       22       23 ar       
      45       22       25 1        
      46       23       24 ar       
      47       23       44 1        
      48       24       45 1        
      49       25       26 1        
      50       26       46 1        
      51       26       47 1        
      52       26       48 1        

