#        1GCZ_R01_S0001_C0000_L00018_S0001_C0000_G0010_E0001.mol2
#        Tue Jun  6 14:19:56 2017
#        Descriptor:     22    11     5     9     8    11
#        Energy - RMSD - RMSD MassCentre:     -76.3425    999.9999    999.9999
#        Receptor:       1  Surface Point:     1  Conformer:     0
#        Ligand:        18  Surface Point:     1  Conformer:     0
#        BUDE Formal Charge: 0
#        ATOM Count: 49
#        Heavy ATOM Count: 26
@<TRIPOS>MOLECULE
ZINC61234769_1GCZ_R01_S0001_C0000_L00018_S0001_C0000_G0010_E0001
 49 52 0 0 0
SMALL
USER_CHARGES
@<TRIPOS>ATOM
       1 C1         6.9060   -0.8643    6.0100 C.3       1 <0>        -0.1123 
       2 C2         5.4324   -0.8330    5.6958 C.ar      1 <0>        -0.0676 
       3 C3         4.8019   -1.9792    5.2325 C.ar      1 <0>        -0.1270 
       4 C4         3.4672   -1.9713    4.9420 C.ar      1 <0>        -0.0597 
       5 C5         2.7245   -0.7998    5.1118 C.ar      1 <0>         0.0438 
       6 C6         3.3623    0.3609    5.5813 C.ar      1 <0>         0.0549 
       7 C7         4.7187    0.3326    5.8758 C.ar      1 <0>        -0.1151 
       8 N1         2.3850    1.3340    5.6432 N.pl3     1 <0>        -0.5955 
       9 C8         1.2212    0.7659    5.2267 C.2       1 <0>         0.2789 
      10 N2         1.4191   -0.4820    4.9158 N.2       1 <0>        -0.4719 
      11 C9        -0.1040    1.4779    5.1387 C.3       1 <0>         0.2183 
      12 C10       -0.8340    1.3977    6.4961 C.3       1 <0>        -0.1243 
      13 C11       -2.3159    1.1974    6.0823 C.3       1 <0>        -0.1305 
      14 C12       -2.1693    0.3128    4.8191 C.3       1 <0>         0.0988 
      15 N3        -0.9609    0.8182    4.1426 N.am      1 <0>        -0.6050 
      16 C13       -0.6871    0.6961    2.8287 C.2       1 <0>         0.5384 
      17 O1         0.3424    1.1528    2.3787 O.2       1 <0>        -0.5189 
      18 C14       -1.6601   -0.0080    1.9185 C.3       1 <0>        -0.0886 
      19 C15       -1.1216   -0.0081    0.5110 C.ar      1 <0>        -0.1068 
      20 C16       -1.4248    1.0354   -0.3441 C.ar      1 <0>        -0.0647 
      21 C17       -0.9327    1.0375   -1.6349 C.ar      1 <0>        -0.1512 
      22 C18       -0.1332   -0.0083   -2.0729 C.ar      1 <0>         0.1282 
      23 C19        0.1699   -1.0540   -1.2129 C.ar      1 <0>        -0.2063 
      24 C20       -0.3205   -1.0487    0.0786 C.ar      1 <0>        -0.0603 
      25 O2         0.3516   -0.0088   -3.3424 O.3       1 <0>        -0.3185 
      26 C21        1.1679   -1.1178   -3.7247 C.3       1 <0>         0.0268 
      27 H1         7.0493   -1.1509    7.0518 H         1 <0>         0.0722 
      28 H2         7.4002   -1.5888    5.3627 H         1 <0>         0.0696 
      29 H3         7.3342    0.1240    5.8428 H         1 <0>         0.0660 
      30 H4         5.3724   -2.8865    5.1000 H         1 <0>         0.1292 
      31 H5         2.9867   -2.8688    4.5815 H         1 <0>         0.1276 
      32 H6         5.2133    1.2208    6.2405 H         1 <0>         0.1220 
      33 H7         0.0530    2.5201    4.8607 H         1 <0>         0.0955 
      34 H8        -0.4772    0.5466    7.0761 H         1 <0>         0.0847 
      35 H9        -0.7117    2.3253    7.0551 H         1 <0>         0.0905 
      36 H10       -2.8722    0.6765    6.8616 H         1 <0>         0.0915 
      37 H11       -2.7860    2.1504    5.8395 H         1 <0>         0.0820 
      38 H12       -2.0376   -0.7319    5.1007 H         1 <0>         0.0764 
      39 H13       -3.0405    0.4257    4.1737 H         1 <0>         0.0835 
      40 H14       -1.7949   -1.0356    2.2559 H         1 <0>         0.1032 
      41 H15       -2.6187    0.5104    1.9407 H         1 <0>         0.1017 
      42 H16       -2.0471    1.8493   -0.0025 H         1 <0>         0.1265 
      43 H17       -1.1703    1.8524   -2.3026 H         1 <0>         0.1306 
      44 H18        0.7920   -1.8692   -1.5516 H         1 <0>         0.1277 
      45 H19       -0.0811   -1.8602    0.7499 H         1 <0>         0.1227 
      46 H20        1.4880   -0.9938   -4.7592 H         1 <0>         0.1005 
      47 H21        2.0432   -1.1650   -3.0768 H         1 <0>         0.0555 
      48 H22        0.5952   -2.0404   -3.6296 H         1 <0>         0.0558 
      49 H23        2.5057    2.2525    5.9308 H         1 <0>         0.4211 
@<TRIPOS>BOND
       1        1        2 1        
       2        1       27 1        
       3        1       28 1        
       4        1       29 1        
       5        2        7 ar       
       6        2        3 ar       
       7        3        4 ar       
       8        3       30 1        
       9        4        5 ar       
      10        4       31 1        
      11        5       10 1        
      12        5        6 ar       
      13        6        7 ar       
      14        6        8 1        
      15        7       32 1        
      16        8        9 1        
      17        8       49 1        
      18        9       10 2        
      19        9       11 1        
      20       11       15 1        
      21       11       12 1        
      22       11       33 1        
      23       12       13 1        
      24       12       34 1        
      25       12       35 1        
      26       13       14 1        
      27       13       36 1        
      28       13       37 1        
      29       14       15 1        
      30       14       38 1        
      31       14       39 1        
      32       15       16 am       
      33       16       17 2        
      34       16       18 1        
      35       18       19 1        
      36       18       40 1        
      37       18       41 1        
      38       19       24 ar       
      39       19       20 ar       
      40       20       21 ar       
      41       20       42 1        
      42       21       22 ar       
      43       21       43 1        
      44       22       23 ar       
      45       22       25 1        
      46       23       24 ar       
      47       23       44 1        
      48       24       45 1        
      49       25       26 1        
      50       26       46 1        
      51       26       47 1        
      52       26       48 1        

