#        1GCZ_R01_S0001_C0000_L00018_S0001_C0001_G0010_E0001.mol2
#        Tue Jun  6 10:01:44 2017
#        Descriptor:     11    23    25     9     8    14
#        Energy - RMSD - RMSD MassCentre:     -55.3797    999.9999    999.9999
#        Receptor:       1  Surface Point:     1  Conformer:     0
#        Ligand:        18  Surface Point:     1  Conformer:     1
#        BUDE Formal Charge: 0
#        ATOM Count: 49
#        Heavy ATOM Count: 26
@<TRIPOS>MOLECULE
ZINC61234769_1GCZ_R01_S0001_C0000_L00018_S0001_C0001_G0010_E0001
 49 52 0 0 0
SMALL
USER_CHARGES
@<TRIPOS>ATOM
       1 C1        -2.5514   -2.4599   10.8811 C.3       1 <0>        -0.1123 
       2 C2        -2.3845   -2.1873    9.4055 C.ar      1 <0>        -0.0676 
       3 C3        -2.6604   -3.1783    8.4416 C.ar      1 <0>        -0.1270 
       4 C4        -2.5101   -2.9437    7.0697 C.ar      1 <0>        -0.0597 
       5 C5        -2.0735   -1.6704    6.6850 C.ar      1 <0>         0.0438 
       6 C6        -1.7987   -0.6806    7.6062 C.ar      1 <0>         0.0549 
       7 C7        -1.9520   -0.9271    8.9757 C.ar      1 <0>        -0.1151 
       8 N1        -1.4009    0.4276    6.9286 N.pl3     1 <0>        -0.5955 
       9 C8        -1.4213    0.1612    5.6545 C.2       1 <0>         0.2789 
      10 N2        -1.8127   -1.0813    5.4419 N.2       1 <0>        -0.4719 
      11 C9        -1.0413    1.1343    4.5643 C.3       1 <0>         0.2183 
      12 C10       -0.9140    0.4045    3.2143 C.3       1 <0>        -0.1243 
      13 C11        0.0842    1.2143    2.3603 C.3       1 <0>        -0.1305 
      14 C12        1.1904    1.6002    3.3597 C.3       1 <0>         0.0988 
      15 N3         0.4520    1.7570    4.6210 N.am      1 <0>        -0.6050 
      16 C13        0.9193    2.3391    5.7218 C.2       1 <0>         0.5384 
      17 O1         0.2113    2.4154    6.7246 O.2       1 <0>        -0.5189 
      18 C14        2.3185    2.9065    5.7411 C.3       1 <0>        -0.0886 
      19 C15        3.3191    1.7758    5.7582 C.ar      1 <0>        -0.1068 
      20 C16        3.7770    1.2461    6.9704 C.ar      1 <0>        -0.0647 
      21 C17        4.7021    0.1955    6.9513 C.ar      1 <0>        -0.1512 
      22 C18        5.1938   -0.3500    5.7651 C.ar      1 <0>         0.1282 
      23 C19        4.7361    0.1886    4.5568 C.ar      1 <0>        -0.2063 
      24 C20        3.8100    1.2385    4.5623 C.ar      1 <0>        -0.0603 
      25 O2         6.0961   -1.3761    5.8635 O.3       1 <0>        -0.3185 
      26 C21        7.2065   -1.3816    4.9623 C.3       1 <0>         0.0268 
      27 H1        -3.5532   -2.1710   11.1917 H         1 <0>         0.0722 
      28 H2        -1.8175   -1.8841   11.4409 H         1 <0>         0.0696 
      29 H3        -2.4035   -3.5207   11.0723 H         1 <0>         0.0660 
      30 H4        -2.9963   -4.1446    8.7880 H         1 <0>         0.1292 
      31 H5        -2.7150   -3.6931    6.3194 H         1 <0>         0.1276 
      32 H6        -1.7359   -0.1427    9.6858 H         1 <0>         0.1220 
      33 H7        -1.8156    1.8970    4.5107 H         1 <0>         0.0955 
      34 H8        -0.5499   -0.6079    3.3757 H         1 <0>         0.0847 
      35 H9        -1.8890    0.3387    2.7355 H         1 <0>         0.0905 
      36 H10       -0.3945    2.0989    1.9453 H         1 <0>         0.0915 
      37 H11        0.4745    0.6177    1.5385 H         1 <0>         0.0820 
      38 H12        1.9376    0.8176    3.4744 H         1 <0>         0.0764 
      39 H13        1.6781    2.5341    3.0885 H         1 <0>         0.0835 
      40 H14        2.4481    3.5200    6.6304 H         1 <0>         0.1032 
      41 H15        2.4742    3.5163    4.8535 H         1 <0>         0.1017 
      42 H16        3.4214    1.6457    7.9086 H         1 <0>         0.1265 
      43 H17        5.0646   -0.2229    7.8787 H         1 <0>         0.1306 
      44 H18        5.0721   -0.1762    3.5973 H         1 <0>         0.1277 
      45 H19        3.4772    1.6340    3.6141 H         1 <0>         0.1227 
      46 H20        7.7990   -0.4816    5.1125 H         1 <0>         0.1005 
      47 H21        7.8224   -2.2581    5.1521 H         1 <0>         0.0555 
      48 H22        6.8411   -1.4092    3.9378 H         1 <0>         0.0558 
      49 H23       -1.1361    1.3217    7.3596 H         1 <0>         0.4211 
@<TRIPOS>BOND
       1        1        2 1        
       2        1       27 1        
       3        1       28 1        
       4        1       29 1        
       5        2        7 ar       
       6        2        3 ar       
       7        3        4 ar       
       8        3       30 1        
       9        4        5 ar       
      10        4       31 1        
      11        5       10 1        
      12        5        6 ar       
      13        6        7 ar       
      14        6        8 1        
      15        7       32 1        
      16        8        9 1        
      17        8       49 1        
      18        9       10 2        
      19        9       11 1        
      20       11       15 1        
      21       11       12 1        
      22       11       33 1        
      23       12       13 1        
      24       12       34 1        
      25       12       35 1        
      26       13       14 1        
      27       13       36 1        
      28       13       37 1        
      29       14       15 1        
      30       14       38 1        
      31       14       39 1        
      32       15       16 am       
      33       16       17 2        
      34       16       18 1        
      35       18       19 1        
      36       18       40 1        
      37       18       41 1        
      38       19       24 ar       
      39       19       20 ar       
      40       20       21 ar       
      41       20       42 1        
      42       21       22 ar       
      43       21       43 1        
      44       22       23 ar       
      45       22       25 1        
      46       23       24 ar       
      47       23       44 1        
      48       24       45 1        
      49       25       26 1        
      50       26       46 1        
      51       26       47 1        
      52       26       48 1        

