#        1GCZ_R01_S0001_C0000_L00018_S0001_C0001_G0010_E0001.mol2
#        Tue Jun  6 14:19:58 2017
#        Descriptor:      3    36    19     9     8    14
#        Energy - RMSD - RMSD MassCentre:     -57.9010    999.9999    999.9999
#        Receptor:       1  Surface Point:     1  Conformer:     0
#        Ligand:        18  Surface Point:     1  Conformer:     1
#        BUDE Formal Charge: 0
#        ATOM Count: 49
#        Heavy ATOM Count: 26
@<TRIPOS>MOLECULE
ZINC61234769_1GCZ_R01_S0001_C0000_L00018_S0001_C0001_G0010_E0001
 49 52 0 0 0
SMALL
USER_CHARGES
@<TRIPOS>ATOM
       1 C1         6.7647    1.8928    8.3822 C.3       1 <0>        -0.1123 
       2 C2         5.5762    0.9636    8.4426 C.ar      1 <0>        -0.0676 
       3 C3         5.7410   -0.4267    8.6082 C.ar      1 <0>        -0.1270 
       4 C4         4.6510   -1.3033    8.6651 C.ar      1 <0>        -0.0597 
       5 C5         3.3740   -0.7403    8.5538 C.ar      1 <0>         0.0438 
       6 C6         3.1829    0.6168    8.3938 C.ar      1 <0>         0.0549 
       7 C7         4.2807    1.4836    8.3376 C.ar      1 <0>        -0.1151 
       8 N1         1.8464    0.8485    8.3180 N.pl3     1 <0>        -0.5955 
       9 C8         1.2241   -0.2900    8.4236 C.2       1 <0>         0.2789 
      10 N2         2.0831   -1.2822    8.5641 N.2       1 <0>        -0.4719 
      11 C9        -0.2758   -0.4594    8.3824 C.3       1 <0>         0.2183 
      12 C10       -0.6440   -1.9492    8.2550 C.3       1 <0>        -0.1243 
      13 C11       -2.0167   -2.0123    7.5527 C.3       1 <0>        -0.1305 
      14 C12       -1.9113   -0.9438    6.4488 C.3       1 <0>         0.0988 
      15 N3        -1.0407    0.0718    7.0582 N.am      1 <0>        -0.6050 
      16 C13       -0.8640    1.3096    6.6048 C.2       1 <0>         0.5384 
      17 O1        -0.1083    2.0787    7.1965 O.2       1 <0>        -0.5189 
      18 C14       -1.5907    1.7713    5.3644 C.3       1 <0>        -0.0886 
      19 C15       -0.9894    1.1025    4.1515 C.ar      1 <0>        -0.1068 
      20 C16        0.0710    1.6995    3.4594 C.ar      1 <0>        -0.0647 
      21 C17        0.6082    1.0515    2.3408 C.ar      1 <0>        -0.1512 
      22 C18        0.1265   -0.1742    1.8803 C.ar      1 <0>         0.1282 
      23 C19       -0.9380   -0.7624    2.5736 C.ar      1 <0>        -0.2063 
      24 C20       -1.4832   -0.1251    3.6945 C.ar      1 <0>        -0.0603 
      25 O2         0.7269   -0.7187    0.7759 O.3       1 <0>        -0.3185 
      26 C21       -0.1086   -1.3426   -0.2027 C.3       1 <0>         0.0268 
      27 H1         6.9878    2.2607    9.3814 H         1 <0>         0.0722 
      28 H2         6.5351    2.7321    7.7291 H         1 <0>         0.0696 
      29 H3         7.6259    1.3543    7.9926 H         1 <0>         0.0660 
      30 H4         6.7462   -0.8130    8.6910 H         1 <0>         0.1292 
      31 H5         4.7609   -2.3705    8.7890 H         1 <0>         0.1276 
      32 H6         4.1168    2.5439    8.2147 H         1 <0>         0.1220 
      33 H7        -0.6854   -0.0457    9.3017 H         1 <0>         0.0955 
      34 H8         0.1125   -2.4669    7.6689 H         1 <0>         0.0847 
      35 H9        -0.6775   -2.4082    9.2411 H         1 <0>         0.0905 
      36 H10       -2.8169   -1.7762    8.2511 H         1 <0>         0.0915 
      37 H11       -2.2028   -3.0012    7.1390 H         1 <0>         0.0820 
      38 H12       -1.4416   -1.3259    5.5448 H         1 <0>         0.0764 
      39 H13       -2.8799   -0.5133    6.2033 H         1 <0>         0.0835 
      40 H14       -1.4946    2.8510    5.2693 H         1 <0>         0.1032 
      41 H15       -2.6431    1.5058    5.4415 H         1 <0>         0.1017 
      42 H16        0.4674    2.6500    3.7846 H         1 <0>         0.1265 
      43 H17        1.4262    1.5003    1.7967 H         1 <0>         0.1306 
      44 H18       -1.3689   -1.7074    2.2772 H         1 <0>         0.1277 
      45 H19       -2.3048   -0.6030    4.2073 H         1 <0>         0.1227 
      46 H20       -0.8053   -0.6097   -0.6042 H         1 <0>         0.1005 
      47 H21        0.5085   -1.7363   -1.0077 H         1 <0>         0.0555 
      48 H22       -0.6636   -2.1557    0.2605 H         1 <0>         0.0558 
      49 H23        1.4114    1.7719    8.2022 H         1 <0>         0.4211 
@<TRIPOS>BOND
       1        1        2 1        
       2        1       27 1        
       3        1       28 1        
       4        1       29 1        
       5        2        7 ar       
       6        2        3 ar       
       7        3        4 ar       
       8        3       30 1        
       9        4        5 ar       
      10        4       31 1        
      11        5       10 1        
      12        5        6 ar       
      13        6        7 ar       
      14        6        8 1        
      15        7       32 1        
      16        8        9 1        
      17        8       49 1        
      18        9       10 2        
      19        9       11 1        
      20       11       15 1        
      21       11       12 1        
      22       11       33 1        
      23       12       13 1        
      24       12       34 1        
      25       12       35 1        
      26       13       14 1        
      27       13       36 1        
      28       13       37 1        
      29       14       15 1        
      30       14       38 1        
      31       14       39 1        
      32       15       16 am       
      33       16       17 2        
      34       16       18 1        
      35       18       19 1        
      36       18       40 1        
      37       18       41 1        
      38       19       24 ar       
      39       19       20 ar       
      40       20       21 ar       
      41       20       42 1        
      42       21       22 ar       
      43       21       43 1        
      44       22       23 ar       
      45       22       25 1        
      46       23       24 ar       
      47       23       44 1        
      48       24       45 1        
      49       25       26 1        
      50       26       46 1        
      51       26       47 1        
      52       26       48 1        

