#        1GCZ_R01_S0001_C0000_L00018_S0001_C0002_G0010_E0001.mol2
#        Tue Jun  6 14:20:00 2017
#        Descriptor:     27     7     6     7     8    13
#        Energy - RMSD - RMSD MassCentre:     -69.0718    999.9999    999.9999
#        Receptor:       1  Surface Point:     1  Conformer:     0
#        Ligand:        18  Surface Point:     1  Conformer:     2
#        BUDE Formal Charge: 0
#        ATOM Count: 49
#        Heavy ATOM Count: 26
@<TRIPOS>MOLECULE
ZINC61234769_1GCZ_R01_S0001_C0000_L00018_S0001_C0002_G0010_E0001
 49 52 0 0 0
SMALL
USER_CHARGES
@<TRIPOS>ATOM
       1 C1        -0.1471    1.4248   -2.9015 C.3       1 <0>        -0.1123 
       2 C2        -0.2328    0.8811   -1.4956 C.ar      1 <0>        -0.0676 
       3 C3         0.0011   -0.4819   -1.2218 C.ar      1 <0>        -0.1270 
       4 C4        -0.0752   -1.0037    0.0751 C.ar      1 <0>        -0.0597 
       5 C5        -0.3930   -0.1092    1.1042 C.ar      1 <0>         0.0438 
       6 C6        -0.6241    1.2300    0.8658 C.ar      1 <0>         0.0549 
       7 C7        -0.5457    1.7402   -0.4355 C.ar      1 <0>        -0.1151 
       8 N1        -0.9046    1.8277    2.0530 N.pl3     1 <0>        -0.5955 
       9 C8        -0.8548    0.9256    2.9904 C.2       1 <0>         0.2789 
      10 N2        -0.5560   -0.2574    2.4868 N.2       1 <0>        -0.4719 
      11 C9        -1.1122    1.1893    4.4547 C.3       1 <0>         0.2183 
      12 C10       -0.0623    2.1656    5.0166 C.3       1 <0>        -0.1243 
      13 C11        1.0839    1.3074    5.5921 C.3       1 <0>        -0.1305 
      14 C12        0.3540    0.1507    6.2997 C.3       1 <0>         0.0988 
      15 N3        -0.8497   -0.0297    5.4755 N.am      1 <0>        -0.6050 
      16 C13       -1.6809   -1.0661    5.5395 C.2       1 <0>         0.5384 
      17 O1        -2.6617   -1.1139    4.7990 O.2       1 <0>        -0.5189 
      18 C14       -1.4212   -2.1839    6.5209 C.3       1 <0>        -0.0886 
      19 C15       -1.7098   -1.6997    7.9217 C.ar      1 <0>        -0.1068 
      20 C16       -0.7021   -1.1116    8.6955 C.ar      1 <0>        -0.0647 
      21 C17       -1.0036   -0.6700    9.9894 C.ar      1 <0>        -0.1512 
      22 C18       -2.2763   -0.7938   10.5470 C.ar      1 <0>         0.1282 
      23 C19       -3.2775   -1.3883    9.7700 C.ar      1 <0>        -0.2063 
      24 C20       -2.9892   -1.8329    8.4742 C.ar      1 <0>        -0.0603 
      25 O2        -2.4598   -0.3274   11.8221 O.3       1 <0>        -0.3185 
      26 C21       -3.2654   -1.1051   12.7114 C.3       1 <0>         0.0268 
      27 H1         0.1595    2.4681   -2.8681 H         1 <0>         0.0722 
      28 H2        -1.1215    1.3477   -3.3794 H         1 <0>         0.0696 
      29 H3         0.5821    0.8498   -3.4683 H         1 <0>         0.0660 
      30 H4         0.2445   -1.1320   -2.0490 H         1 <0>         0.1292 
      31 H5         0.0988   -2.0454    0.3006 H         1 <0>         0.1276 
      32 H6        -0.7264    2.7909   -0.6078 H         1 <0>         0.1220 
      33 H7        -2.1105    1.6117    4.5489 H         1 <0>         0.0955 
      34 H8         0.3027    2.8119    4.2212 H         1 <0>         0.0847 
      35 H9        -0.5135    2.7952    5.7809 H         1 <0>         0.0905 
      36 H10        1.6792    1.8842    6.2969 H         1 <0>         0.0915 
      37 H11        1.7403    0.9463    4.8032 H         1 <0>         0.0820 
      38 H12        0.9340   -0.7698    6.2968 H         1 <0>         0.0764 
      39 H13        0.0782    0.4057    7.3208 H         1 <0>         0.0835 
      40 H14       -0.3804   -2.4931    6.4504 H         1 <0>         0.1032 
      41 H15       -2.0674   -3.0277    6.2878 H         1 <0>         0.1017 
      42 H16        0.2963   -1.0024    8.2983 H         1 <0>         0.1265 
      43 H17       -0.2362   -0.2147   10.5980 H         1 <0>         0.1306 
      44 H18       -4.2861   -1.5238   10.1318 H         1 <0>         0.1277 
      45 H19       -3.7820   -2.2890    7.9000 H         1 <0>         0.1227 
      46 H20       -2.8157   -2.0871   12.8422 H         1 <0>         0.1005 
      47 H21       -3.3288   -0.6034   13.6747 H         1 <0>         0.0555 
      48 H22       -4.2637   -1.2154   12.2927 H         1 <0>         0.0558 
      49 H23       -1.1141    2.8254    2.1786 H         1 <0>         0.4211 
@<TRIPOS>BOND
       1        1        2 1        
       2        1       27 1        
       3        1       28 1        
       4        1       29 1        
       5        2        7 ar       
       6        2        3 ar       
       7        3        4 ar       
       8        3       30 1        
       9        4        5 ar       
      10        4       31 1        
      11        5       10 1        
      12        5        6 ar       
      13        6        7 ar       
      14        6        8 1        
      15        7       32 1        
      16        8        9 1        
      17        8       49 1        
      18        9       10 2        
      19        9       11 1        
      20       11       15 1        
      21       11       12 1        
      22       11       33 1        
      23       12       13 1        
      24       12       34 1        
      25       12       35 1        
      26       13       14 1        
      27       13       36 1        
      28       13       37 1        
      29       14       15 1        
      30       14       38 1        
      31       14       39 1        
      32       15       16 am       
      33       16       17 2        
      34       16       18 1        
      35       18       19 1        
      36       18       40 1        
      37       18       41 1        
      38       19       24 ar       
      39       19       20 ar       
      40       20       21 ar       
      41       20       42 1        
      42       21       22 ar       
      43       21       43 1        
      44       22       23 ar       
      45       22       25 1        
      46       23       24 ar       
      47       23       44 1        
      48       24       45 1        
      49       25       26 1        
      50       26       46 1        
      51       26       47 1        
      52       26       48 1        

