#        1GCZ_R01_S0001_C0000_L00003_S0001_C0040_G0010_E0001.mol2
#        Tue Jun  6 09:55:10 2017
#        Descriptor:      6    15    10     7    10    13
#        Energy - RMSD - RMSD MassCentre:     -66.8466    999.9999    999.9999
#        Receptor:       1  Surface Point:     1  Conformer:     0
#        Ligand:         3  Surface Point:     1  Conformer:    40
#        BUDE Formal Charge: 0
#        ATOM Count: 58
#        Heavy ATOM Count: 30
@<TRIPOS>MOLECULE
ZINC61580633_1GCZ_R01_S0001_C0000_L00003_S0001_C0040_G0010_E0001
 58 59 0 0 0
SMALL
USER_CHARGES
@<TRIPOS>ATOM
       1 C1        -0.2928    0.8853   -4.1335 C.3       1 <0>        -0.1532 
       2 C2         0.9414    0.0087   -3.9411 C.3       1 <0>        -0.1224 
       3 C3         0.6017   -1.1487   -3.0030 C.3       1 <0>        -0.1198 
       4 C4         0.1725   -0.5938   -1.6456 C.3       1 <0>         0.0610 
       5 O1        -0.1455   -1.6769   -0.7677 O.3       1 <0>        -0.3878 
       6 C5        -0.5554   -1.2167    0.5226 C.3       1 <0>         0.0487 
       7 C6         0.5805   -0.4201    1.1628 C.3       1 <0>         0.1244 
       8 N1         0.1592    0.0530    2.4892 N.am      1 <0>        -0.7216 
       9 C7        -0.7380    1.0294    2.5925 C.2       1 <0>         0.5161 
      10 O2        -1.2153    1.5368    1.5789 O.2       1 <0>        -0.5151 
      11 C8        -1.1708    1.5154    3.9550 C.3       1 <0>         0.0490 
      12 O3        -0.0899    2.2161    4.5758 O.3       1 <0>        -0.3194 
      13 C9        -0.2916    2.7272    5.8089 C.2       1 <0>         0.5417 
      14 O4        -1.3707    2.5849    6.3601 O.2       1 <0>        -0.5337 
      15 C10        0.7969    3.4605    6.4927 C.2       1 <0>        -0.2559 
      16 C11        2.1451    3.6788    5.9224 C.2       1 <0>        -0.0791 
      17 C12        2.9431    4.3585    6.7490 C.2       1 <0>        -0.2585 
      18 S1         2.1427    4.7935    8.2664 S.3       1 <0>         0.3028 
      19 C13        0.6639    3.9924    7.7153 C.2       1 <0>         0.0893 
      20 N2        -0.5009    3.8958    8.4302 N.am      1 <0>        -0.6099 
      21 C14       -0.5862    4.4397    9.6408 C.2       1 <0>         0.5551 
      22 O5         0.3812    5.0300   10.1190 O.2       1 <0>        -0.4939 
      23 C15       -1.8451    4.3345   10.4118 C.ar      1 <0>        -0.1466 
      24 C16       -1.8900    4.9188   11.6832 C.ar      1 <0>        -0.0772 
      25 C17       -3.0270    4.7893   12.4897 C.ar      1 <0>        -0.1241 
      26 C18       -4.1374    4.0636   12.0431 C.ar      1 <0>        -0.0446 
      27 C19       -4.1158    3.5234   10.7517 C.ar      1 <0>        -0.1261 
      28 C20       -2.9881    3.6801    9.9371 C.ar      1 <0>        -0.0460 
      29 C21       -5.3296    3.8829   12.9522 C.3       1 <0>        -0.0928 
      30 C22       -5.1528    2.6097   13.7745 C.3       1 <0>        -0.1485 
      31 H1        -0.6028    1.2901   -3.1724 H         1 <0>         0.0567 
      32 H2        -1.0994    0.2878   -4.5531 H         1 <0>         0.0554 
      33 H3        -0.0547    1.7017   -4.8119 H         1 <0>         0.0557 
      34 H4         1.2597   -0.3867   -4.9034 H         1 <0>         0.0632 
      35 H5         1.7443    0.6017   -3.5084 H         1 <0>         0.0635 
      36 H6        -0.2107   -1.7344   -3.4280 H         1 <0>         0.0711 
      37 H7         1.4775   -1.7815   -2.8750 H         1 <0>         0.0704 
      38 H8         0.9844   -0.0085   -1.2191 H         1 <0>         0.0498 
      39 H9        -0.7038    0.0386   -1.7723 H         1 <0>         0.0505 
      40 H10       -0.7989   -2.0699    1.1524 H         1 <0>         0.0584 
      41 H11       -1.4313   -0.5795    0.4198 H         1 <0>         0.0702 
      42 H12        0.8243    0.4339    0.5345 H         1 <0>         0.0872 
      43 H13        1.4567   -1.0566    1.2670 H         1 <0>         0.0805 
      44 H14        0.5504   -0.3629    3.3223 H         1 <0>         0.4058 
      45 H15       -2.0222    2.1845    3.8487 H         1 <0>         0.1008 
      46 H16       -1.4522    0.6644    4.5717 H         1 <0>         0.0999 
      47 H17        2.4260    3.3289    4.9401 H         1 <0>         0.1557 
      48 H18        3.9607    4.6185    6.4979 H         1 <0>         0.1929 
      49 H19       -1.2952    3.4111    8.0376 H         1 <0>         0.4317 
      50 H20       -1.0381    5.4721   12.0499 H         1 <0>         0.1287 
      51 H21       -3.0524    5.2497   13.4662 H         1 <0>         0.1326 
      52 H22       -4.9822    2.9883   10.3918 H         1 <0>         0.1342 
      53 H23       -3.0516    3.2936    8.9307 H         1 <0>         0.1410 
      54 H24       -6.2339    3.8053   12.3522 H         1 <0>         0.0777 
      55 H25       -5.4089    4.7385   13.6196 H         1 <0>         0.0771 
      56 H26       -4.2551    2.6937   14.3834 H         1 <0>         0.0623 
      57 H27       -5.0596    1.7567   13.1056 H         1 <0>         0.0572 
      58 H28       -6.0180    2.4726   14.4198 H         1 <0>         0.0578 
@<TRIPOS>BOND
       1        1        2 1        
       2        1       31 1        
       3        1       32 1        
       4        1       33 1        
       5        2        3 1        
       6        2       34 1        
       7        2       35 1        
       8        3        4 1        
       9        3       36 1        
      10        3       37 1        
      11        4        5 1        
      12        4       38 1        
      13        4       39 1        
      14        5        6 1        
      15        6        7 1        
      16        6       40 1        
      17        6       41 1        
      18        7        8 1        
      19        7       42 1        
      20        7       43 1        
      21        8        9 am       
      22        8       44 1        
      23        9       10 2        
      24        9       11 1        
      25       11       12 1        
      26       11       45 1        
      27       11       46 1        
      28       12       13 1        
      29       13       14 2        
      30       13       15 1        
      31       15       19 2        
      32       15       16 1        
      33       16       17 2        
      34       16       47 1        
      35       17       18 1        
      36       17       48 1        
      37       18       19 1        
      38       19       20 1        
      39       20       21 am       
      40       20       49 1        
      41       21       22 2        
      42       21       23 1        
      43       23       28 ar       
      44       23       24 ar       
      45       24       25 ar       
      46       24       50 1        
      47       25       26 ar       
      48       25       51 1        
      49       26       27 ar       
      50       26       29 1        
      51       27       28 ar       
      52       27       52 1        
      53       28       53 1        
      54       29       30 1        
      55       29       54 1        
      56       29       55 1        
      57       30       56 1        
      58       30       57 1        
      59       30       58 1        

