#        1GCZ_R01_S0001_C0000_L00019_S0001_C0000_G0010_E0001.mol2
#        Tue Jun  6 10:01:45 2017
#        Descriptor:     28    35     4     8     8    12
#        Energy - RMSD - RMSD MassCentre:     -70.5048    999.9999    999.9999
#        Receptor:       1  Surface Point:     1  Conformer:     0
#        Ligand:        19  Surface Point:     1  Conformer:     0
#        BUDE Formal Charge: 0
#        ATOM Count: 46
#        Heavy ATOM Count: 25
@<TRIPOS>MOLECULE
ZINC61234762_1GCZ_R01_S0001_C0000_L00019_S0001_C0000_G0010_E0001
 46 49 0 0 0
SMALL
USER_CHARGES
@<TRIPOS>ATOM
       1 C1        -1.2003    0.3758   -2.9404 C.3       1 <0>        -0.1124 
       2 C2        -0.8232    0.3603   -1.4814 C.ar      1 <0>        -0.0668 
       3 C3         0.0760   -0.5869   -1.0120 C.ar      1 <0>        -0.1269 
       4 C4         0.4307   -0.6175    0.3068 C.ar      1 <0>        -0.0588 
       5 C5        -0.1142    0.3125    1.1962 C.ar      1 <0>         0.0434 
       6 C6        -1.0242    1.2719    0.7213 C.ar      1 <0>         0.0556 
       7 C7        -1.3693    1.2908   -0.6233 C.ar      1 <0>        -0.1153 
       8 N1        -1.3798    2.0345    1.8159 N.pl3     1 <0>        -0.5942 
       9 C8        -0.7048    1.5411    2.8891 C.2       1 <0>         0.2752 
      10 N2         0.0355    0.5341    2.5273 N.2       1 <0>        -0.4719 
      11 C9        -0.8002    2.0824    4.2923 C.3       1 <0>         0.2194 
      12 C10        0.2186    3.2256    4.4842 C.3       1 <0>        -0.1240 
      13 C11        0.7295    2.9965    5.9313 C.3       1 <0>        -0.1317 
      14 C12        0.7297    1.4499    6.0199 C.3       1 <0>         0.0944 
      15 N3        -0.4605    1.0282    5.2591 N.am      1 <0>        -0.5969 
      16 C13       -1.1273   -0.1316    5.4231 C.2       1 <0>         0.5882 
      17 O1        -2.1597   -0.3306    4.8132 O.2       1 <0>        -0.5236 
      18 C14       -0.6027   -1.1619    6.3448 C.ar      1 <0>        -0.0888 
      19 C15       -1.4673   -2.0999    6.9120 C.ar      1 <0>        -0.0994 
      20 C16       -0.9746   -3.0598    7.7717 C.ar      1 <0>        -0.0862 
      21 C17        0.3743   -3.0963    8.0744 C.ar      1 <0>        -0.1841 
      22 C18        1.2416   -2.1679    7.5153 C.ar      1 <0>         0.1199 
      23 C19        0.7585   -1.2038    6.6462 C.ar      1 <0>        -0.1264 
      24 O2         2.5662   -2.2082    7.8167 O.3       1 <0>        -0.3151 
      25 C20        2.9961   -3.2324    8.7157 C.3       1 <0>         0.0259 
      26 H1        -0.5101    1.0179   -3.4873 H         1 <0>         0.0723 
      27 H2        -1.1483   -0.6371   -3.3398 H         1 <0>         0.0697 
      28 H3        -2.2155    0.7575   -3.0492 H         1 <0>         0.0661 
      29 H4         0.4992   -1.3073   -1.6963 H         1 <0>         0.1296 
      30 H5         1.1307   -1.3594    0.6615 H         1 <0>         0.1284 
      31 H6        -2.0654    2.0283   -0.9945 H         1 <0>         0.1225 
      32 H7        -1.8099    2.4471    4.4809 H         1 <0>         0.0993 
      33 H8         1.0360    3.1380    3.7684 H         1 <0>         0.0861 
      34 H9        -0.2697    4.1962    4.3967 H         1 <0>         0.0925 
      35 H10        1.7359    3.3953    6.0580 H         1 <0>         0.0935 
      36 H11        0.0446    3.4294    6.6604 H         1 <0>         0.0832 
      37 H12        1.6337    1.0442    5.5656 H         1 <0>         0.0807 
      38 H13        0.6493    1.1295    7.0585 H         1 <0>         0.0890 
      39 H14       -2.5214   -2.0738    6.6783 H         1 <0>         0.1351 
      40 H15       -1.6444   -3.7849    8.2099 H         1 <0>         0.1337 
      41 H16        0.7542   -3.8496    8.7487 H         1 <0>         0.1331 
      42 H17        1.4329   -0.4837    6.2069 H         1 <0>         0.1477 
      43 H18        2.4819   -3.1176    9.6700 H         1 <0>         0.0569 
      44 H19        2.7622   -4.2091    8.2922 H         1 <0>         0.0568 
      45 H20        4.0719   -3.1517    8.8707 H         1 <0>         0.1028 
      46 H21       -1.9963    2.7833    1.8192 H         1 <0>         0.4217 
@<TRIPOS>BOND
       1        1        2 1        
       2        1       26 1        
       3        1       27 1        
       4        1       28 1        
       5        2        7 ar       
       6        2        3 ar       
       7        3        4 ar       
       8        3       29 1        
       9        4        5 ar       
      10        4       30 1        
      11        5       10 1        
      12        5        6 ar       
      13        6        7 ar       
      14        6        8 1        
      15        7       31 1        
      16        8        9 1        
      17        8       46 1        
      18        9       10 2        
      19        9       11 1        
      20       11       15 1        
      21       11       12 1        
      22       11       32 1        
      23       12       13 1        
      24       12       33 1        
      25       12       34 1        
      26       13       14 1        
      27       13       35 1        
      28       13       36 1        
      29       14       15 1        
      30       14       37 1        
      31       14       38 1        
      32       15       16 am       
      33       16       17 2        
      34       16       18 1        
      35       18       23 ar       
      36       18       19 ar       
      37       19       20 ar       
      38       19       39 1        
      39       20       21 ar       
      40       20       40 1        
      41       21       22 ar       
      42       21       41 1        
      43       22       23 ar       
      44       22       24 1        
      45       23       42 1        
      46       24       25 1        
      47       25       43 1        
      48       25       44 1        
      49       25       45 1        

