#        1GCZ_R01_S0001_C0000_L00019_S0001_C0000_G0010_E0001.mol2
#        Tue Jun  6 14:20:02 2017
#        Descriptor:     35    10    26    12     9    14
#        Energy - RMSD - RMSD MassCentre:     -57.1417    999.9999    999.9999
#        Receptor:       1  Surface Point:     1  Conformer:     0
#        Ligand:        19  Surface Point:     1  Conformer:     0
#        BUDE Formal Charge: 0
#        ATOM Count: 46
#        Heavy ATOM Count: 25
@<TRIPOS>MOLECULE
ZINC61234762_1GCZ_R01_S0001_C0000_L00019_S0001_C0000_G0010_E0001
 46 49 0 0 0
SMALL
USER_CHARGES
@<TRIPOS>ATOM
       1 C1        10.5707   -1.4463    6.7694 C.3       1 <0>        -0.1124 
       2 C2         9.1573   -0.9242    6.7437 C.ar      1 <0>        -0.0668 
       3 C3         8.0959   -1.7997    6.9254 C.ar      1 <0>        -0.1269 
       4 C4         6.8075   -1.3462    6.9056 C.ar      1 <0>        -0.0588 
       5 C5         6.5504    0.0121    6.7012 C.ar      1 <0>         0.0434 
       6 C6         7.6247    0.8988    6.5177 C.ar      1 <0>         0.0556 
       7 C7         8.9277    0.4206    6.5457 C.ar      1 <0>        -0.1153 
       8 N1         7.0625    2.1476    6.3428 N.pl3     1 <0>        -0.5942 
       9 C8         5.7125    1.9980    6.4209 C.2       1 <0>         0.2752 
      10 N2         5.4125    0.7494    6.6304 N.2       1 <0>        -0.4719 
      11 C9         4.7108    3.1156    6.2849 C.3       1 <0>         0.2194 
      12 C10        4.4727    3.7770    7.6588 C.3       1 <0>        -0.1240 
      13 C11        2.9495    4.0721    7.6431 C.3       1 <0>        -0.1317 
      14 C12        2.4040    2.8503    6.8624 C.3       1 <0>         0.0944 
      15 N3         3.4204    2.5778    5.8299 N.am      1 <0>        -0.5969 
      16 C13        3.2025    1.9416    4.6619 C.2       1 <0>         0.5882 
      17 O1         4.0918    1.8643    3.8368 O.2       1 <0>        -0.5236 
      18 C14        1.8818    1.3375    4.3842 C.ar      1 <0>        -0.0888 
      19 C15        1.4665    1.1366    3.0666 C.ar      1 <0>        -0.0994 
      20 C16        0.2335    0.5728    2.8111 C.ar      1 <0>        -0.0862 
      21 C17       -0.5938    0.2057    3.8566 C.ar      1 <0>        -0.1841 
      22 C18       -0.1894    0.4015    5.1700 C.ar      1 <0>         0.1199 
      23 C19        1.0489    0.9610    5.4378 C.ar      1 <0>        -0.1264 
      24 O2        -1.0068    0.0392    6.1936 O.3       1 <0>        -0.3151 
      25 C20       -2.2671   -0.5368    5.8446 C.3       1 <0>         0.0259 
      26 H1        10.9508   -1.4160    7.7905 H         1 <0>         0.0723 
      27 H2        10.5851   -2.4741    6.4067 H         1 <0>         0.0697 
      28 H3        11.1987   -0.8264    6.1294 H         1 <0>         0.0661 
      29 H4         8.2905   -2.8501    7.0837 H         1 <0>         0.1296 
      30 H5         5.9890   -2.0363    7.0474 H         1 <0>         0.1284 
      31 H6         9.7575    1.0982    6.4089 H         1 <0>         0.1225 
      32 H7         5.0758    3.8558    5.5729 H         1 <0>         0.0993 
      33 H8         4.7240    3.0896    8.4665 H         1 <0>         0.0861 
      34 H9         5.0437    4.7014    7.7460 H         1 <0>         0.0925 
      35 H10        2.5466    4.1005    8.6555 H         1 <0>         0.0935 
      36 H11        2.7370    5.0007    7.1134 H         1 <0>         0.0832 
      37 H12        2.2984    1.9924    7.5264 H         1 <0>         0.0807 
      38 H13        1.4478    3.0925    6.3989 H         1 <0>         0.0890 
      39 H14        2.1098    1.4228    2.2477 H         1 <0>         0.1351 
      40 H15       -0.0867    0.4179    1.7913 H         1 <0>         0.1337 
      41 H16       -1.5582   -0.2345    3.6505 H         1 <0>         0.1331 
      42 H17        1.3666    1.1098    6.4592 H         1 <0>         0.1477 
      43 H18       -2.8400    0.1750    5.2502 H         1 <0>         0.0569 
      44 H19       -2.1033   -1.4453    5.2650 H         1 <0>         0.0568 
      45 H20       -2.8195   -0.7796    6.7524 H         1 <0>         0.1028 
      46 H21        7.5411    2.9777    6.1925 H         1 <0>         0.4217 
@<TRIPOS>BOND
       1        1        2 1        
       2        1       26 1        
       3        1       27 1        
       4        1       28 1        
       5        2        7 ar       
       6        2        3 ar       
       7        3        4 ar       
       8        3       29 1        
       9        4        5 ar       
      10        4       30 1        
      11        5       10 1        
      12        5        6 ar       
      13        6        7 ar       
      14        6        8 1        
      15        7       31 1        
      16        8        9 1        
      17        8       46 1        
      18        9       10 2        
      19        9       11 1        
      20       11       15 1        
      21       11       12 1        
      22       11       32 1        
      23       12       13 1        
      24       12       33 1        
      25       12       34 1        
      26       13       14 1        
      27       13       35 1        
      28       13       36 1        
      29       14       15 1        
      30       14       37 1        
      31       14       38 1        
      32       15       16 am       
      33       16       17 2        
      34       16       18 1        
      35       18       23 ar       
      36       18       19 ar       
      37       19       20 ar       
      38       19       39 1        
      39       20       21 ar       
      40       20       40 1        
      41       21       22 ar       
      42       21       41 1        
      43       22       23 ar       
      44       22       24 1        
      45       23       42 1        
      46       24       25 1        
      47       25       43 1        
      48       25       44 1        
      49       25       45 1        

