#        1GCZ_R01_S0001_C0000_L00019_S0001_C0001_G0010_E0001.mol2
#        Tue Jun  6 10:01:46 2017
#        Descriptor:      9    33     9     8     8    13
#        Energy - RMSD - RMSD MassCentre:     -67.5631    999.9999    999.9999
#        Receptor:       1  Surface Point:     1  Conformer:     0
#        Ligand:        19  Surface Point:     1  Conformer:     1
#        BUDE Formal Charge: 0
#        ATOM Count: 46
#        Heavy ATOM Count: 25
@<TRIPOS>MOLECULE
ZINC61234762_1GCZ_R01_S0001_C0000_L00019_S0001_C0001_G0010_E0001
 46 49 0 0 0
SMALL
USER_CHARGES
@<TRIPOS>ATOM
       1 C1        -1.6763   -3.2759   10.5865 C.3       1 <0>        -0.1124 
       2 C2        -0.6054   -2.4723    9.8889 C.ar      1 <0>        -0.0668 
       3 C3         0.7508   -2.5733   10.2676 C.ar      1 <0>        -0.1269 
       4 C4         1.7546   -1.8335    9.6312 C.ar      1 <0>        -0.0588 
       5 C5         1.3586   -0.9845    8.5910 C.ar      1 <0>         0.0434 
       6 C6         0.0436   -0.8682    8.1981 C.ar      1 <0>         0.0556 
       7 C7        -0.9533   -1.6115    8.8412 C.ar      1 <0>        -0.1153 
       8 N1        -0.0167    0.0224    7.1762 N.pl3     1 <0>        -0.5942 
       9 C8         1.1856    0.4494    6.9309 C.2       1 <0>         0.2752 
      10 N2         2.0575   -0.1132    7.7468 N.2       1 <0>        -0.4719 
      11 C9         1.5410    1.4585    5.8652 C.3       1 <0>         0.2194 
      12 C10        1.1109    2.8718    6.2997 C.3       1 <0>        -0.1240 
      13 C11       -0.3091    3.1017    5.7413 C.3       1 <0>        -0.1317 
      14 C12       -0.2442    2.4961    4.3268 C.3       1 <0>         0.0944 
      15 N3         0.7146    1.3944    4.4928 N.am      1 <0>        -0.5969 
      16 C13        0.9161    0.4297    3.5997 C.2       1 <0>         0.5882 
      17 O1         1.7416   -0.4537    3.8252 O.2       1 <0>        -0.5236 
      18 C14        0.1481    0.4187    2.3348 C.ar      1 <0>        -0.0888 
      19 C15       -0.7929    1.4214    2.0720 C.ar      1 <0>        -0.0994 
      20 C16       -1.5055    1.3848    0.8676 C.ar      1 <0>        -0.0862 
      21 C17       -1.2888    0.3662   -0.0676 C.ar      1 <0>        -0.1841 
      22 C18       -0.3489   -0.6388    0.1900 C.ar      1 <0>         0.1199 
      23 C19        0.3616   -0.5974    1.3957 C.ar      1 <0>        -0.1264 
      24 O2        -0.0687   -1.6761   -0.6601 O.3       1 <0>        -0.3151 
      25 C20        0.0052   -1.3946   -2.0602 C.3       1 <0>         0.0259 
      26 H1        -2.4869   -3.4802    9.8901 H         1 <0>         0.0723 
      27 H2        -2.0591   -2.7106   11.4337 H         1 <0>         0.0697 
      28 H3        -1.2536   -4.2149   10.9374 H         1 <0>         0.0661 
      29 H4         1.0069   -3.2433   11.0750 H         1 <0>         0.1296 
      30 H5         2.7964   -1.8955    9.9096 H         1 <0>         0.1284 
      31 H6        -1.9804   -1.5141    8.5217 H         1 <0>         0.1225 
      32 H7         2.6177    1.4205    5.7131 H         1 <0>         0.0993 
      33 H8         1.1130    2.9387    7.3856 H         1 <0>         0.0861 
      34 H9         1.8156    3.6066    5.9160 H         1 <0>         0.0925 
      35 H10       -0.5405    4.1640    5.7019 H         1 <0>         0.0935 
      36 H11       -1.0599    2.6091    6.3555 H         1 <0>         0.0832 
      37 H12       -1.2004    2.0938    3.9988 H         1 <0>         0.0807 
      38 H13        0.1253    3.2035    3.5874 H         1 <0>         0.0890 
      39 H14       -0.9588    2.2077    2.7934 H         1 <0>         0.1351 
      40 H15       -2.2357    2.1492    0.6459 H         1 <0>         0.1337 
      41 H16       -1.8647    0.3837   -0.9810 H         1 <0>         0.1331 
      42 H17        1.0883   -1.3710    1.5947 H         1 <0>         0.1477 
      43 H18        0.7966   -0.6707   -2.2428 H         1 <0>         0.0569 
      44 H19        0.2201   -2.3127   -2.6031 H         1 <0>         0.0568 
      45 H20       -0.9453   -0.9870   -2.3981 H         1 <0>         0.1028 
      46 H21       -0.8743    0.3006    6.6828 H         1 <0>         0.4217 
@<TRIPOS>BOND
       1        1        2 1        
       2        1       26 1        
       3        1       27 1        
       4        1       28 1        
       5        2        7 ar       
       6        2        3 ar       
       7        3        4 ar       
       8        3       29 1        
       9        4        5 ar       
      10        4       30 1        
      11        5       10 1        
      12        5        6 ar       
      13        6        7 ar       
      14        6        8 1        
      15        7       31 1        
      16        8        9 1        
      17        8       46 1        
      18        9       10 2        
      19        9       11 1        
      20       11       15 1        
      21       11       12 1        
      22       11       32 1        
      23       12       13 1        
      24       12       33 1        
      25       12       34 1        
      26       13       14 1        
      27       13       35 1        
      28       13       36 1        
      29       14       15 1        
      30       14       37 1        
      31       14       38 1        
      32       15       16 am       
      33       16       17 2        
      34       16       18 1        
      35       18       23 ar       
      36       18       19 ar       
      37       19       20 ar       
      38       19       39 1        
      39       20       21 ar       
      40       20       40 1        
      41       21       22 ar       
      42       21       41 1        
      43       22       23 ar       
      44       22       24 1        
      45       23       42 1        
      46       24       25 1        
      47       25       43 1        
      48       25       44 1        
      49       25       45 1        

