#        1GCZ_R01_S0001_C0000_L00019_S0001_C0001_G0010_E0001.mol2
#        Tue Jun  6 14:20:03 2017
#        Descriptor:      9    33     8     8     8    14
#        Energy - RMSD - RMSD MassCentre:     -66.2607    999.9999    999.9999
#        Receptor:       1  Surface Point:     1  Conformer:     0
#        Ligand:        19  Surface Point:     1  Conformer:     1
#        BUDE Formal Charge: 0
#        ATOM Count: 46
#        Heavy ATOM Count: 25
@<TRIPOS>MOLECULE
ZINC61234762_1GCZ_R01_S0001_C0000_L00019_S0001_C0001_G0010_E0001
 46 49 0 0 0
SMALL
USER_CHARGES
@<TRIPOS>ATOM
       1 C1        -2.2197   -2.9351   11.5865 C.3       1 <0>        -0.1124 
       2 C2        -1.0255   -2.3296   10.8889 C.ar      1 <0>        -0.0668 
       3 C3         0.2925   -2.6646   11.2676 C.ar      1 <0>        -0.1269 
       4 C4         1.4096   -2.1104   10.6312 C.ar      1 <0>        -0.0588 
       5 C5         1.1670   -1.2055    9.5910 C.ar      1 <0>         0.0434 
       6 C6        -0.1078   -0.8626    9.1981 C.ar      1 <0>         0.0556 
       7 C7        -1.2187   -1.4215    9.8412 C.ar      1 <0>        -0.1153 
       8 N1        -0.0126    0.0250    8.1762 N.pl3     1 <0>        -0.5942 
       9 C8         1.2456    0.2367    7.9309 C.2       1 <0>         0.2752 
      10 N2         2.0066   -0.4687    8.7468 N.2       1 <0>        -0.4719 
      11 C9         1.7709    1.1687    6.8652 C.3       1 <0>         0.2194 
      12 C10        1.5927    2.6353    7.2997 C.3       1 <0>        -0.1240 
      13 C11        0.2342    3.1082    6.7413 C.3       1 <0>        -0.1317 
      14 C12        0.1930    2.5006    5.3268 C.3       1 <0>         0.0944 
      15 N3         0.9459    1.2492    5.4928 N.am      1 <0>        -0.5969 
      16 C13        0.9768    0.2641    4.5997 C.2       1 <0>         0.5882 
      17 O1         1.6364   -0.7492    4.8252 O.2       1 <0>        -0.5236 
      18 C14        0.2186    0.3866    3.3348 C.ar      1 <0>        -0.0888 
      19 C15       -0.5340    1.5375    3.0720 C.ar      1 <0>        -0.0994 
      20 C16       -1.2422    1.6252    1.8676 C.ar      1 <0>        -0.0862 
      21 C17       -1.2056    0.5844    0.9324 C.ar      1 <0>        -0.1841 
      22 C18       -0.4545   -0.5685    1.1900 C.ar      1 <0>         0.1199 
      23 C19        0.2524   -0.6511    2.3957 C.ar      1 <0>        -0.1264 
      24 O2        -0.3587   -1.6387    0.3399 O.3       1 <0>        -0.3151 
      25 C20       -0.2371   -1.3743   -1.0602 C.3       1 <0>         0.0259 
      26 H1        -3.0534   -2.9955   10.8901 H         1 <0>         0.0723 
      27 H2        -2.4985   -2.3119   12.4337 H         1 <0>         0.0697 
      28 H3        -1.9665   -3.9332   11.9374 H         1 <0>         0.0661 
      29 H4         0.4284   -3.3689   12.0750 H         1 <0>         0.1296 
      30 H5         2.4248   -2.3523   10.9096 H         1 <0>         0.1284 
      31 H6        -2.2132   -1.1472    9.5217 H         1 <0>         0.1225 
      32 H7         2.8246    0.9443    6.7131 H         1 <0>         0.0993 
      33 H8         1.6064    2.7008    8.3856 H         1 <0>         0.0861 
      34 H9         2.4143    3.2365    6.9160 H         1 <0>         0.0925 
      35 H10        0.1908    4.1946    6.7019 H         1 <0>         0.0935 
      36 H11       -0.5907    2.7535    7.3555 H         1 <0>         0.0832 
      37 H12       -0.8186    2.2704    4.9988 H         1 <0>         0.0807 
      38 H13        0.6797    3.1331    4.5874 H         1 <0>         0.0890 
      39 H14       -0.5609    2.3406    3.7934 H         1 <0>         0.1351 
      40 H15       -1.8285    2.5047    1.6459 H         1 <0>         0.1337 
      41 H16       -1.7697    0.7017    0.0190 H         1 <0>         0.1331 
      42 H17        0.8337   -1.5392    2.5947 H         1 <0>         0.1477 
      43 H18        0.6680   -0.7989   -1.2428 H         1 <0>         0.0569 
      44 H19       -0.1848   -2.3158   -1.6031 H         1 <0>         0.0568 
      45 H20       -1.1023   -0.8078   -1.3981 H         1 <0>         0.1028 
      46 H21       -0.8088    0.4478    7.6828 H         1 <0>         0.4217 
@<TRIPOS>BOND
       1        1        2 1        
       2        1       26 1        
       3        1       27 1        
       4        1       28 1        
       5        2        7 ar       
       6        2        3 ar       
       7        3        4 ar       
       8        3       29 1        
       9        4        5 ar       
      10        4       30 1        
      11        5       10 1        
      12        5        6 ar       
      13        6        7 ar       
      14        6        8 1        
      15        7       31 1        
      16        8        9 1        
      17        8       46 1        
      18        9       10 2        
      19        9       11 1        
      20       11       15 1        
      21       11       12 1        
      22       11       32 1        
      23       12       13 1        
      24       12       33 1        
      25       12       34 1        
      26       13       14 1        
      27       13       35 1        
      28       13       36 1        
      29       14       15 1        
      30       14       37 1        
      31       14       38 1        
      32       15       16 am       
      33       16       17 2        
      34       16       18 1        
      35       18       23 ar       
      36       18       19 ar       
      37       19       20 ar       
      38       19       39 1        
      39       20       21 ar       
      40       20       40 1        
      41       21       22 ar       
      42       21       41 1        
      43       22       23 ar       
      44       22       24 1        
      45       23       42 1        
      46       24       25 1        
      47       25       43 1        
      48       25       44 1        
      49       25       45 1        

