#        1GCZ_R01_S0001_C0000_L00019_S0001_C0002_G0010_E0001.mol2
#        Tue Jun  6 14:20:05 2017
#        Descriptor:     29     7    17     9     9    11
#        Energy - RMSD - RMSD MassCentre:     -73.0209    999.9999    999.9999
#        Receptor:       1  Surface Point:     1  Conformer:     0
#        Ligand:        19  Surface Point:     1  Conformer:     2
#        BUDE Formal Charge: 0
#        ATOM Count: 46
#        Heavy ATOM Count: 25
@<TRIPOS>MOLECULE
ZINC61234762_1GCZ_R01_S0001_C0000_L00019_S0001_C0002_G0010_E0001
 46 49 0 0 0
SMALL
USER_CHARGES
@<TRIPOS>ATOM
       1 C1        -0.3245    1.8761   -3.3887 C.3       1 <0>        -0.1124 
       2 C2        -0.3243    0.9244   -2.2166 C.ar      1 <0>        -0.0668 
       3 C3        -0.2808   -0.4736   -2.4072 C.ar      1 <0>        -0.1269 
       4 C4        -0.2815   -1.3684   -1.3305 C.ar      1 <0>        -0.0588 
       5 C5        -0.3225   -0.8178   -0.0441 C.ar      1 <0>         0.0434 
       6 C6        -0.3622    0.5419    0.1720 C.ar      1 <0>         0.0556 
       7 C7        -0.3620    1.4288   -0.9112 C.ar      1 <0>        -0.1153 
       8 N1        -0.3949    0.7578    1.5112 N.pl3     1 <0>        -0.5942 
       9 C8        -0.3774   -0.3929    2.1143 C.2       1 <0>         0.2752 
      10 N2        -0.3373   -1.3795    1.2384 N.2       1 <0>        -0.4719 
      11 C9        -0.4080   -0.5813    3.6122 C.3       1 <0>         0.2194 
      12 C10       -1.8191   -0.2982    4.1598 C.3       1 <0>        -0.1240 
      13 C11       -1.8554    1.1913    4.5616 C.3       1 <0>        -0.1317 
      14 C12       -0.4878    1.4188    5.2320 C.3       1 <0>         0.0944 
      15 N3         0.3867    0.4911    4.5004 N.am      1 <0>        -0.5969 
      16 C13        1.7152    0.5006    4.5622 C.2       1 <0>         0.5882 
      17 O1         2.3665   -0.3163    3.9131 O.2       1 <0>        -0.5236 
      18 C14        2.4105    1.4933    5.4115 C.ar      1 <0>        -0.0888 
      19 C15        1.6751    2.4257    6.1530 C.ar      1 <0>        -0.0994 
      20 C16        2.3597    3.3537    6.9468 C.ar      1 <0>        -0.0862 
      21 C17        3.7581    3.3585    7.0065 C.ar      1 <0>        -0.1841 
      22 C18        4.4983    2.4281    6.2674 C.ar      1 <0>         0.1199 
      23 C19        3.8089    1.5019    5.4755 C.ar      1 <0>        -0.1264 
      24 O2         5.8664    2.3552    6.2588 O.3       1 <0>        -0.3151 
      25 C20        6.4691    1.0585    6.2739 C.3       1 <0>         0.0259 
      26 H1         0.1486    2.8111   -3.0959 H         1 <0>         0.0723 
      27 H2        -1.3496    2.0692   -3.6980 H         1 <0>         0.0697 
      28 H3         0.2271    1.4329   -4.2149 H         1 <0>         0.0661 
      29 H4        -0.2485   -0.8501   -3.4189 H         1 <0>         0.1296 
      30 H5        -0.2520   -2.4406   -1.4575 H         1 <0>         0.1284 
      31 H6        -0.3899    2.4928   -0.7287 H         1 <0>         0.1225 
      32 H7        -0.1174   -1.6075    3.8271 H         1 <0>         0.0993 
      33 H8        -2.5602   -0.5077    3.3913 H         1 <0>         0.0861 
      34 H9        -2.0226   -0.9469    5.0092 H         1 <0>         0.0925 
      35 H10       -2.6692    1.3830    5.2578 H         1 <0>         0.0935 
      36 H11       -1.9889    1.8320    3.6925 H         1 <0>         0.0832 
      37 H12       -0.1215    2.4352    5.1028 H         1 <0>         0.0807 
      38 H13       -0.4957    1.1671    6.2904 H         1 <0>         0.0890 
      39 H14        0.5962    2.4207    6.1073 H         1 <0>         0.1351 
      40 H15        1.8107    4.0811    7.5265 H         1 <0>         0.1337 
      41 H16        4.2376    4.0951    7.6340 H         1 <0>         0.1331 
      42 H17        4.3788    0.7825    4.9064 H         1 <0>         0.1477 
      43 H18        6.1607    0.5055    5.3891 H         1 <0>         0.0569 
      44 H19        7.5520    1.1627    6.2781 H         1 <0>         0.0568 
      45 H20        6.1523    0.5224    7.1661 H         1 <0>         0.1028 
      46 H21       -0.4228    1.6813    1.9617 H         1 <0>         0.4217 
@<TRIPOS>BOND
       1        1        2 1        
       2        1       26 1        
       3        1       27 1        
       4        1       28 1        
       5        2        7 ar       
       6        2        3 ar       
       7        3        4 ar       
       8        3       29 1        
       9        4        5 ar       
      10        4       30 1        
      11        5       10 1        
      12        5        6 ar       
      13        6        7 ar       
      14        6        8 1        
      15        7       31 1        
      16        8        9 1        
      17        8       46 1        
      18        9       10 2        
      19        9       11 1        
      20       11       15 1        
      21       11       12 1        
      22       11       32 1        
      23       12       13 1        
      24       12       33 1        
      25       12       34 1        
      26       13       14 1        
      27       13       35 1        
      28       13       36 1        
      29       14       15 1        
      30       14       37 1        
      31       14       38 1        
      32       15       16 am       
      33       16       17 2        
      34       16       18 1        
      35       18       23 ar       
      36       18       19 ar       
      37       19       20 ar       
      38       19       39 1        
      39       20       21 ar       
      40       20       40 1        
      41       21       22 ar       
      42       21       41 1        
      43       22       23 ar       
      44       22       24 1        
      45       23       42 1        
      46       24       25 1        
      47       25       43 1        
      48       25       44 1        
      49       25       45 1        

