#        1GCZ_R01_S0001_C0000_L00019_S0001_C0003_G0010_E0001.mol2
#        Tue Jun  6 10:01:47 2017
#        Descriptor:      9    12    26     8     8    13
#        Energy - RMSD - RMSD MassCentre:     -71.2068    999.9999    999.9999
#        Receptor:       1  Surface Point:     1  Conformer:     0
#        Ligand:        19  Surface Point:     1  Conformer:     3
#        BUDE Formal Charge: 0
#        ATOM Count: 46
#        Heavy ATOM Count: 25
@<TRIPOS>MOLECULE
ZINC61234762_1GCZ_R01_S0001_C0000_L00019_S0001_C0003_G0010_E0001
 46 49 0 0 0
SMALL
USER_CHARGES
@<TRIPOS>ATOM
       1 C1        -0.4180    1.2064   -2.1734 C.3       1 <0>        -0.1124 
       2 C2        -0.3017    0.8812   -0.7036 C.ar      1 <0>        -0.0668 
       3 C3         0.3404   -0.2956   -0.2615 C.ar      1 <0>        -0.1269 
       4 C4         0.4548   -0.6112    1.0976 C.ar      1 <0>        -0.0588 
       5 C5        -0.0937    0.2968    2.0111 C.ar      1 <0>         0.0434 
       6 C6        -0.7228    1.4542    1.6089 C.ar      1 <0>         0.0556 
       7 C7        -0.8328    1.7606    0.2473 C.ar      1 <0>        -0.1153 
       8 N1        -1.1416    2.1163    2.7165 N.pl3     1 <0>        -0.5942 
       9 C8        -0.8014    1.4252    3.7628 C.2       1 <0>         0.2752 
      10 N2        -0.1720    0.3202    3.4089 N.2       1 <0>        -0.4719 
      11 C9        -1.0922    1.8227    5.1902 C.3       1 <0>         0.2194 
      12 C10       -0.4183    3.1674    5.5205 C.3       1 <0>        -0.1240 
      13 C11        0.9663    2.8419    6.1191 C.3       1 <0>        -0.1317 
      14 C12        0.6885    1.6402    7.0413 C.3       1 <0>         0.0944 
      15 N3        -0.4070    0.9488    6.3466 N.am      1 <0>        -0.5969 
      16 C13       -0.8282   -0.2787    6.6377 C.2       1 <0>         0.5882 
      17 O1        -1.7544   -0.7778    6.0008 O.2       1 <0>        -0.5236 
      18 C14       -0.1832   -1.0444    7.7277 C.ar      1 <0>        -0.0888 
      19 C15        0.8714   -0.4819    8.4566 C.ar      1 <0>        -0.0994 
      20 C16        1.4631   -1.2300    9.4814 C.ar      1 <0>        -0.0862 
      21 C17        1.0154   -2.5216    9.7820 C.ar      1 <0>        -0.1841 
      22 C18       -0.0390   -3.0887    9.0564 C.ar      1 <0>         0.1199 
      23 C19       -0.6278   -2.3363    8.0329 C.ar      1 <0>        -0.1264 
      24 O2        -0.5449   -4.3432    9.2739 O.3       1 <0>        -0.3151 
      25 C20        0.3780   -5.3993    9.5536 C.3       1 <0>         0.0259 
      26 H1        -0.4389    2.2862   -2.3048 H         1 <0>         0.0723 
      27 H2        -1.3352    0.7746   -2.5683 H         1 <0>         0.0697 
      28 H3         0.4365    0.7924   -2.7045 H         1 <0>         0.0661 
      29 H4         0.7492   -0.9641   -1.0048 H         1 <0>         0.1296 
      30 H5         0.9394   -1.5083    1.4538 H         1 <0>         0.1284 
      31 H6        -1.3254    2.6729   -0.0554 H         1 <0>         0.1225 
      32 H7        -2.1714    1.9024    5.3029 H         1 <0>         0.0993 
      33 H8        -0.3161    3.7596    4.6135 H         1 <0>         0.0861 
      34 H9        -1.0352    3.7275    6.2202 H         1 <0>         0.0925 
      35 H10        1.3505    3.6884    6.6843 H         1 <0>         0.0935 
      36 H11        1.6849    2.5939    5.3408 H         1 <0>         0.0832 
      37 H12        1.5412    0.9695    7.1242 H         1 <0>         0.0807 
      38 H13        0.3667    1.9436    8.0353 H         1 <0>         0.0890 
      39 H14        1.2156    0.5151    8.2250 H         1 <0>         0.1351 
      40 H15        2.2779   -0.8140   10.0556 H         1 <0>         0.1337 
      41 H16        1.5058   -3.0565   10.5818 H         1 <0>         0.1331 
      42 H17       -1.4426   -2.7719    7.4738 H         1 <0>         0.1477 
      43 H18        0.9302   -5.1664   10.4616 H         1 <0>         0.0569 
      44 H19       -0.1679   -6.3305    9.6891 H         1 <0>         0.0568 
      45 H20        1.0723   -5.5028    8.7224 H         1 <0>         0.1028 
      46 H21       -1.6384    3.0162    2.7162 H         1 <0>         0.4217 
@<TRIPOS>BOND
       1        1        2 1        
       2        1       26 1        
       3        1       27 1        
       4        1       28 1        
       5        2        7 ar       
       6        2        3 ar       
       7        3        4 ar       
       8        3       29 1        
       9        4        5 ar       
      10        4       30 1        
      11        5       10 1        
      12        5        6 ar       
      13        6        7 ar       
      14        6        8 1        
      15        7       31 1        
      16        8        9 1        
      17        8       46 1        
      18        9       10 2        
      19        9       11 1        
      20       11       15 1        
      21       11       12 1        
      22       11       32 1        
      23       12       13 1        
      24       12       33 1        
      25       12       34 1        
      26       13       14 1        
      27       13       35 1        
      28       13       36 1        
      29       14       15 1        
      30       14       37 1        
      31       14       38 1        
      32       15       16 am       
      33       16       17 2        
      34       16       18 1        
      35       18       23 ar       
      36       18       19 ar       
      37       19       20 ar       
      38       19       39 1        
      39       20       21 ar       
      40       20       40 1        
      41       21       22 ar       
      42       21       41 1        
      43       22       23 ar       
      44       22       24 1        
      45       23       42 1        
      46       24       25 1        
      47       25       43 1        
      48       25       44 1        
      49       25       45 1        

