#        1GCZ_R01_S0001_C0000_L00019_S0001_C0003_G0010_E0001.mol2
#        Tue Jun  6 14:20:07 2017
#        Descriptor:     13     1    14    12     9    14
#        Energy - RMSD - RMSD MassCentre:     -64.5292    999.9999    999.9999
#        Receptor:       1  Surface Point:     1  Conformer:     0
#        Ligand:        19  Surface Point:     1  Conformer:     3
#        BUDE Formal Charge: 0
#        ATOM Count: 46
#        Heavy ATOM Count: 25
@<TRIPOS>MOLECULE
ZINC61234762_1GCZ_R01_S0001_C0000_L00019_S0001_C0003_G0010_E0001
 46 49 0 0 0
SMALL
USER_CHARGES
@<TRIPOS>ATOM
       1 C1        10.8636   -0.3179    8.0596 C.3       1 <0>        -0.1124 
       2 C2         9.4345   -0.1245    7.6123 C.ar      1 <0>        -0.0668 
       3 C3         8.6193   -1.2237    7.2665 C.ar      1 <0>        -0.1269 
       4 C4         7.2932   -1.0601    6.8488 C.ar      1 <0>        -0.0588 
       5 C5         6.8000    0.2489    6.7912 C.ar      1 <0>         0.0434 
       6 C6         7.5712    1.3399    7.1258 C.ar      1 <0>         0.0556 
       7 C7         8.8967    1.1660    7.5416 C.ar      1 <0>        -0.1153 
       8 N1         6.8168    2.4566    6.9695 N.pl3     1 <0>        -0.5942 
       9 C8         5.6359    2.1019    6.5602 C.2       1 <0>         0.2752 
      10 N2         5.5605    0.7906    6.4298 N.2       1 <0>        -0.4719 
      11 C9         4.5038    3.0562    6.2639 C.3       1 <0>         0.2194 
      12 C10        4.1271    3.8509    7.5280 C.3       1 <0>        -0.1240 
      13 C11        2.9985    3.0684    8.2318 C.3       1 <0>        -0.1317 
      14 C12        2.1002    2.6052    7.0700 C.3       1 <0>         0.0944 
      15 N3         3.0630    2.4145    5.9758 N.am      1 <0>        -0.5969 
      16 C13        2.7916    1.7901    4.8333 C.2       1 <0>         0.5882 
      17 O1         3.6627    1.6778    3.9723 O.2       1 <0>        -0.5236 
      18 C14        1.4420    1.2306    4.5971 C.ar      1 <0>        -0.0888 
      19 C15        0.4460    1.3552    5.5729 C.ar      1 <0>        -0.0994 
      20 C16       -0.8211    0.8151    5.3224 C.ar      1 <0>        -0.0862 
      21 C17       -1.0997    0.1586    4.1180 C.ar      1 <0>        -0.1841 
      22 C18       -0.1074    0.0315    3.1387 C.ar      1 <0>         0.1199 
      23 C19        1.1579    0.5738    3.3939 C.ar      1 <0>        -0.1264 
      24 O2        -0.2826   -0.5941    1.9325 O.3       1 <0>        -0.3151 
      25 C20       -1.0423   -1.8055    1.9093 C.3       1 <0>         0.0259 
      26 H1        11.1409    0.4827    8.7420 H         1 <0>         0.0723 
      27 H2        11.5201   -0.2995    7.1922 H         1 <0>         0.0697 
      28 H3        10.9578   -1.2760    8.5663 H         1 <0>         0.0661 
      29 H4         9.0449   -2.2145    7.3285 H         1 <0>         0.1296 
      30 H5         6.6561   -1.8888    6.5771 H         1 <0>         0.1284 
      31 H6         9.4903    2.0291    7.8045 H         1 <0>         0.1225 
      32 H7         4.8317    3.7312    5.4761 H         1 <0>         0.0993 
      33 H8         4.9955    3.9415    8.1771 H         1 <0>         0.0861 
      34 H9         3.8071    4.8535    7.2522 H         1 <0>         0.0925 
      35 H10        2.4515    3.7131    8.9165 H         1 <0>         0.0935 
      36 H11        3.3937    2.2257    8.7952 H         1 <0>         0.0832 
      37 H12        1.6002    1.6613    7.2771 H         1 <0>         0.0807 
      38 H13        1.3618    3.3538    6.7903 H         1 <0>         0.0890 
      39 H14        0.6612    1.8629    6.5014 H         1 <0>         0.1351 
      40 H15       -1.6033    0.9009    6.0622 H         1 <0>         0.1337 
      41 H16       -2.0930   -0.2403    3.9743 H         1 <0>         0.1331 
      42 H17        1.9237    0.4780    2.6384 H         1 <0>         0.1477 
      43 H18       -2.0519   -1.6064    2.2627 H         1 <0>         0.0569 
      44 H19       -1.0825   -2.1881    0.8916 H         1 <0>         0.0568 
      45 H20       -0.5695   -2.5418    2.5558 H         1 <0>         0.1028 
      46 H21        7.1349    3.4167    7.1530 H         1 <0>         0.4217 
@<TRIPOS>BOND
       1        1        2 1        
       2        1       26 1        
       3        1       27 1        
       4        1       28 1        
       5        2        7 ar       
       6        2        3 ar       
       7        3        4 ar       
       8        3       29 1        
       9        4        5 ar       
      10        4       30 1        
      11        5       10 1        
      12        5        6 ar       
      13        6        7 ar       
      14        6        8 1        
      15        7       31 1        
      16        8        9 1        
      17        8       46 1        
      18        9       10 2        
      19        9       11 1        
      20       11       15 1        
      21       11       12 1        
      22       11       32 1        
      23       12       13 1        
      24       12       33 1        
      25       12       34 1        
      26       13       14 1        
      27       13       35 1        
      28       13       36 1        
      29       14       15 1        
      30       14       37 1        
      31       14       38 1        
      32       15       16 am       
      33       16       17 2        
      34       16       18 1        
      35       18       23 ar       
      36       18       19 ar       
      37       19       20 ar       
      38       19       39 1        
      39       20       21 ar       
      40       20       40 1        
      41       21       22 ar       
      42       21       41 1        
      43       22       23 ar       
      44       22       24 1        
      45       23       42 1        
      46       24       25 1        
      47       25       43 1        
      48       25       44 1        
      49       25       45 1        

