#        1GCZ_R01_S0001_C0000_L00019_S0001_C0004_G0010_E0001.mol2
#        Tue Jun  6 10:01:48 2017
#        Descriptor:     29     6     5     8     7    12
#        Energy - RMSD - RMSD MassCentre:     -74.6725    999.9999    999.9999
#        Receptor:       1  Surface Point:     1  Conformer:     0
#        Ligand:        19  Surface Point:     1  Conformer:     4
#        BUDE Formal Charge: 0
#        ATOM Count: 46
#        Heavy ATOM Count: 25
@<TRIPOS>MOLECULE
ZINC61234762_1GCZ_R01_S0001_C0000_L00019_S0001_C0004_G0010_E0001
 46 49 0 0 0
SMALL
USER_CHARGES
@<TRIPOS>ATOM
       1 C1        -0.9757    0.7642   -2.9393 C.3       1 <0>        -0.1124 
       2 C2        -0.7189    0.2909   -1.5287 C.ar      1 <0>        -0.0668 
       3 C3        -0.2971   -1.0299   -1.2638 C.ar      1 <0>        -0.1269 
       4 C4        -0.0564   -1.4835    0.0386 C.ar      1 <0>        -0.0588 
       5 C5        -0.2475   -0.5659    1.0786 C.ar      1 <0>         0.0434 
       6 C6        -0.6552    0.7296    0.8496 C.ar      1 <0>         0.0556 
       7 C7        -0.8942    1.1735   -0.4564 C.ar      1 <0>        -0.1153 
       8 N1        -0.7475    1.3629    2.0459 N.pl3     1 <0>        -0.5942 
       9 C8        -0.4191    0.5243    2.9823 C.2       1 <0>         0.2752 
      10 N2        -0.1112   -0.6523    2.4694 N.2       1 <0>        -0.4719 
      11 C9        -0.3997    0.8443    4.4579 C.3       1 <0>         0.2194 
      12 C10        0.5981    1.9809    4.7473 C.3       1 <0>        -0.1240 
      13 C11        1.9482    1.3177    5.0919 C.3       1 <0>        -0.1317 
      14 C12        1.5490    0.1239    5.9791 C.3       1 <0>         0.0944 
      15 N3         0.2366   -0.2550    5.4362 N.am      1 <0>        -0.5969 
      16 C13       -0.3998   -1.3869    5.7239 C.2       1 <0>         0.5882 
      17 O1        -1.4977   -1.6196    5.2207 O.2       1 <0>        -0.5236 
      18 C14        0.2121   -2.3664    6.6493 C.ar      1 <0>        -0.0888 
      19 C15        1.4614   -2.1074    7.2256 C.ar      1 <0>        -0.0994 
      20 C16        2.0163   -3.0527    8.0965 C.ar      1 <0>        -0.0862 
      21 C17        1.3414   -4.2422    8.3943 C.ar      1 <0>        -0.1841 
      22 C18        0.0918   -4.5060    7.8211 C.ar      1 <0>         0.1199 
      23 C19       -0.4591   -3.5572    6.9512 C.ar      1 <0>        -0.1264 
      24 O2        -0.6431   -5.6397    8.0487 O.3       1 <0>        -0.3151 
      25 C20       -2.0578   -5.5017    8.2058 C.3       1 <0>         0.0259 
      26 H1        -0.7746    1.8313   -3.0054 H         1 <0>         0.0723 
      27 H2        -2.0141    0.5732   -3.2018 H         1 <0>         0.0697 
      28 H3        -0.3231    0.2284   -3.6254 H         1 <0>         0.0661 
      29 H4        -0.1621   -1.7001   -2.0999 H         1 <0>         0.1296 
      30 H5         0.2632   -2.4910    0.2604 H         1 <0>         0.1284 
      31 H6        -1.2102    2.1927   -0.6233 H         1 <0>         0.1225 
      32 H7        -1.4053    1.1398    4.7502 H         1 <0>         0.0993 
      33 H8         0.6946    2.6172    3.8701 H         1 <0>         0.0861 
      34 H9         0.2320    2.5935    5.5686 H         1 <0>         0.0925 
      35 H10        2.5906    2.0095    5.6326 H         1 <0>         0.0935 
      36 H11        2.4703    0.9944    4.1939 H         1 <0>         0.0832 
      37 H12        2.2333   -0.7165    5.8839 H         1 <0>         0.0807 
      38 H13        1.4534    0.3978    7.0277 H         1 <0>         0.0890 
      39 H14        1.9811   -1.1890    6.9963 H         1 <0>         0.1351 
      40 H15        2.9789   -2.8716    8.5516 H         1 <0>         0.1337 
      41 H16        1.8130   -4.9383    9.0721 H         1 <0>         0.1331 
      42 H17       -1.4239   -3.7588    6.5099 H         1 <0>         0.1477 
      43 H18       -2.4833   -5.0783    7.2984 H         1 <0>         0.0569 
      44 H19       -2.4983   -6.4789    8.3920 H         1 <0>         0.0568 
      45 H20       -2.2662   -4.8432    9.0464 H         1 <0>         0.1028 
      46 H21       -1.0257    2.3438    2.1769 H         1 <0>         0.4217 
@<TRIPOS>BOND
       1        1        2 1        
       2        1       26 1        
       3        1       27 1        
       4        1       28 1        
       5        2        7 ar       
       6        2        3 ar       
       7        3        4 ar       
       8        3       29 1        
       9        4        5 ar       
      10        4       30 1        
      11        5       10 1        
      12        5        6 ar       
      13        6        7 ar       
      14        6        8 1        
      15        7       31 1        
      16        8        9 1        
      17        8       46 1        
      18        9       10 2        
      19        9       11 1        
      20       11       15 1        
      21       11       12 1        
      22       11       32 1        
      23       12       13 1        
      24       12       33 1        
      25       12       34 1        
      26       13       14 1        
      27       13       35 1        
      28       13       36 1        
      29       14       15 1        
      30       14       37 1        
      31       14       38 1        
      32       15       16 am       
      33       16       17 2        
      34       16       18 1        
      35       18       23 ar       
      36       18       19 ar       
      37       19       20 ar       
      38       19       39 1        
      39       20       21 ar       
      40       20       40 1        
      41       21       22 ar       
      42       21       41 1        
      43       22       23 ar       
      44       22       24 1        
      45       23       42 1        
      46       24       25 1        
      47       25       43 1        
      48       25       44 1        
      49       25       45 1        

