#        1GCZ_R01_S0001_C0000_L00019_S0001_C0004_G0010_E0001.mol2
#        Tue Jun  6 14:20:09 2017
#        Descriptor:     25     6     8     7     8    13
#        Energy - RMSD - RMSD MassCentre:     -67.7148    999.9999    999.9999
#        Receptor:       1  Surface Point:     1  Conformer:     0
#        Ligand:        19  Surface Point:     1  Conformer:     4
#        BUDE Formal Charge: 0
#        ATOM Count: 46
#        Heavy ATOM Count: 25
@<TRIPOS>MOLECULE
ZINC61234762_1GCZ_R01_S0001_C0000_L00019_S0001_C0004_G0010_E0001
 46 49 0 0 0
SMALL
USER_CHARGES
@<TRIPOS>ATOM
       1 C1         0.3376    0.7202   -2.0647 C.3       1 <0>        -0.1124 
       2 C2         0.1089    0.4571   -0.5956 C.ar      1 <0>        -0.0668 
       3 C3         0.2885   -0.8299   -0.0445 C.ar      1 <0>        -0.1269 
       4 C4         0.0790   -1.0895    1.3151 C.ar      1 <0>        -0.0588 
       5 C5        -0.3151   -0.0112    2.1164 C.ar      1 <0>         0.0434 
       6 C6        -0.4948    1.2557    1.6068 C.ar      1 <0>         0.0556 
       7 C7        -0.2836    1.5050    0.2455 C.ar      1 <0>        -0.1153 
       8 N1        -0.8722    2.0719    2.6227 N.pl3     1 <0>        -0.5942 
       9 C8        -0.9304    1.3704    3.7147 C.2       1 <0>         0.2752 
      10 N2        -0.6108    0.1116    3.4795 N.2       1 <0>        -0.4719 
      11 C9        -1.3189    1.9143    5.0688 C.3       1 <0>         0.2194 
      12 C10       -0.3378    3.0180    5.5053 C.3       1 <0>        -0.1240 
      13 C11        0.7686    2.3340    6.3356 C.3       1 <0>        -0.1317 
      14 C12       -0.0027    1.3199    7.2006 C.3       1 <0>         0.0944 
      15 N3        -1.1253    0.9432    6.3298 N.am      1 <0>        -0.5969 
      16 C13       -1.9358   -0.0884    6.5485 C.2       1 <0>         0.5882 
      17 O1        -2.8513   -0.3281    5.7630 O.2       1 <0>        -0.5236 
      18 C14       -1.7368   -0.9481    7.7366 C.ar      1 <0>        -0.0888 
      19 C15       -0.6967   -0.6806    8.6348 C.ar      1 <0>        -0.0994 
      20 C16       -0.5318   -1.5115    9.7494 C.ar      1 <0>        -0.0862 
      21 C17       -1.3880   -2.5959    9.9731 C.ar      1 <0>        -0.1841 
      22 C18       -2.4298   -2.8677    9.0784 C.ar      1 <0>         0.1199 
      23 C19       -2.5908   -2.0335    7.9655 C.ar      1 <0>        -0.1264 
      24 O2        -3.3158   -3.9044    9.2101 O.3       1 <0>        -0.3151 
      25 C20       -4.6895   -3.6561    8.8998 C.3       1 <0>         0.0259 
      26 H1         0.6620    1.7494   -2.2020 H         1 <0>         0.0723 
      27 H2        -0.5890    0.5555   -2.6105 H         1 <0>         0.0697 
      28 H3         1.1043    0.0447   -2.4384 H         1 <0>         0.0661 
      29 H4         0.5948   -1.6292   -0.7033 H         1 <0>         0.1296 
      30 H5         0.2082   -2.0681    1.7534 H         1 <0>         0.1284 
      31 H6        -0.4245    2.5034   -0.1415 H         1 <0>         0.1225 
      32 H7        -2.3282    2.3135    4.9928 H         1 <0>         0.0993 
      33 H8         0.0840    3.5028    4.6274 H         1 <0>         0.0861 
      34 H9        -0.8650    3.7724    6.0856 H         1 <0>         0.0925 
      35 H10        1.2901    3.0603    6.9554 H         1 <0>         0.0935 
      36 H11        1.4977    1.8432    5.6944 H         1 <0>         0.0832 
      37 H12        0.5850    0.4340    7.4325 H         1 <0>         0.0807 
      38 H13       -0.3775    1.7589    8.1228 H         1 <0>         0.0890 
      39 H14       -0.0373    0.1569    8.4622 H         1 <0>         0.1351 
      40 H15        0.2643   -1.3219   10.4542 H         1 <0>         0.1337 
      41 H16       -1.2177   -3.2060   10.8478 H         1 <0>         0.1331 
      42 H17       -3.3953   -2.2410    7.2756 H         1 <0>         0.1477 
      43 H18       -4.7765   -3.3534    7.8584 H         1 <0>         0.0569 
      44 H19       -5.2673   -4.5632    9.0640 H         1 <0>         0.0568 
      45 H20       -5.0681   -2.8632    9.5415 H         1 <0>         0.1028 
      46 H21       -1.0704    3.0765    2.5329 H         1 <0>         0.4217 
@<TRIPOS>BOND
       1        1        2 1        
       2        1       26 1        
       3        1       27 1        
       4        1       28 1        
       5        2        7 ar       
       6        2        3 ar       
       7        3        4 ar       
       8        3       29 1        
       9        4        5 ar       
      10        4       30 1        
      11        5       10 1        
      12        5        6 ar       
      13        6        7 ar       
      14        6        8 1        
      15        7       31 1        
      16        8        9 1        
      17        8       46 1        
      18        9       10 2        
      19        9       11 1        
      20       11       15 1        
      21       11       12 1        
      22       11       32 1        
      23       12       13 1        
      24       12       33 1        
      25       12       34 1        
      26       13       14 1        
      27       13       35 1        
      28       13       36 1        
      29       14       15 1        
      30       14       37 1        
      31       14       38 1        
      32       15       16 am       
      33       16       17 2        
      34       16       18 1        
      35       18       23 ar       
      36       18       19 ar       
      37       19       20 ar       
      38       19       39 1        
      39       20       21 ar       
      40       20       40 1        
      41       21       22 ar       
      42       21       41 1        
      43       22       23 ar       
      44       22       24 1        
      45       23       42 1        
      46       24       25 1        
      47       25       43 1        
      48       25       44 1        
      49       25       45 1        

