#        1GCZ_R01_S0001_C0000_L00019_S0001_C0005_G0010_E0001.mol2
#        Tue Jun  6 10:01:49 2017
#        Descriptor:     27     8    15    10     9    11
#        Energy - RMSD - RMSD MassCentre:     -59.9662    999.9999    999.9999
#        Receptor:       1  Surface Point:     1  Conformer:     0
#        Ligand:        19  Surface Point:     1  Conformer:     5
#        BUDE Formal Charge: 0
#        ATOM Count: 46
#        Heavy ATOM Count: 25
@<TRIPOS>MOLECULE
ZINC61234762_1GCZ_R01_S0001_C0000_L00019_S0001_C0005_G0010_E0001
 46 49 0 0 0
SMALL
USER_CHARGES
@<TRIPOS>ATOM
       1 C1         1.2454   -0.3885   -3.3370 C.3       1 <0>        -0.1124 
       2 C2         0.6597    0.3099   -2.1333 C.ar      1 <0>        -0.0668 
       3 C3        -0.1686    1.4441   -2.2748 C.ar      1 <0>        -0.1269 
       4 C4        -0.7176    2.1031   -1.1684 C.ar      1 <0>        -0.0588 
       5 C5        -0.4146    1.5857    0.0966 C.ar      1 <0>         0.0434 
       6 C6         0.3879    0.4788    0.2647 C.ar      1 <0>         0.0556 
       7 C7         0.9329   -0.1728   -0.8480 C.ar      1 <0>        -0.1153 
       8 N1         0.4908    0.2275    1.5940 N.pl3     1 <0>        -0.5942 
       9 C8        -0.2027    1.1186    2.2366 C.2       1 <0>         0.2752 
      10 N2        -0.7689    1.9653    1.3968 N.2       1 <0>        -0.4719 
      11 C9        -0.3382    1.1863    3.7389 C.3       1 <0>         0.2194 
      12 C10       -0.9920    2.5157    4.1593 C.3       1 <0>        -0.1240 
      13 C11       -0.4984    2.8281    5.5877 C.3       1 <0>        -0.1317 
      14 C12        0.9951    2.4554    5.5441 C.3       1 <0>         0.0944 
      15 N3         1.0189    1.3346    4.5934 N.am      1 <0>        -0.5969 
      16 C13        2.0476    0.5079    4.4285 C.2       1 <0>         0.5882 
      17 O1         1.9771   -0.4046    3.6068 O.2       1 <0>        -0.5236 
      18 C14        3.2770    0.6850    5.2331 C.ar      1 <0>        -0.0888 
      19 C15        3.3636    1.7215    6.1702 C.ar      1 <0>        -0.0994 
      20 C16        4.5394    1.8656    6.9163 C.ar      1 <0>        -0.0862 
      21 C17        5.6185    0.9923    6.7371 C.ar      1 <0>        -0.1841 
      22 C18        5.5371   -0.0460    5.8017 C.ar      1 <0>         0.1199 
      23 C19        4.3589   -0.1861    5.0584 C.ar      1 <0>        -0.1264 
      24 O2         6.5383   -0.9477    5.5535 O.3       1 <0>        -0.3151 
      25 C20        7.8831   -0.4630    5.5154 C.3       1 <0>         0.0259 
      26 H1         0.5974   -1.2124   -3.6284 H         1 <0>         0.0723 
      27 H2         2.2321   -0.7732   -3.0878 H         1 <0>         0.0697 
      28 H3         1.3280    0.3175   -4.1606 H         1 <0>         0.0661 
      29 H4        -0.3747    1.8046   -3.2719 H         1 <0>         0.1296 
      30 H5        -1.3504    2.9739   -1.2574 H         1 <0>         0.1284 
      31 H6         1.5578   -1.0417   -0.7034 H         1 <0>         0.1225 
      32 H7        -0.9506    0.3456    4.0586 H         1 <0>         0.0993 
      33 H8        -0.6980    3.3039    3.4694 H         1 <0>         0.0861 
      34 H9        -2.0754    2.4226    4.1217 H         1 <0>         0.0925 
      35 H10       -1.0310    2.2250    6.3200 H         1 <0>         0.0935 
      36 H11       -0.6440    3.8774    5.8354 H         1 <0>         0.0832 
      37 H12        1.6176    3.2625    5.1634 H         1 <0>         0.0807 
      38 H13        1.3720    2.1312    6.5118 H         1 <0>         0.0890 
      39 H14        2.5302    2.3942    6.3088 H         1 <0>         0.1351 
      40 H15        4.6260    2.6586    7.6444 H         1 <0>         0.1337 
      41 H16        6.5027    1.1468    7.3377 H         1 <0>         0.1331 
      42 H17        4.2942   -0.9879    4.3378 H         1 <0>         0.1477 
      43 H18        8.1392   -0.0295    6.4799 H         1 <0>         0.0569 
      44 H19        8.5588   -1.2871    5.2966 H         1 <0>         0.0568 
      45 H20        7.9727    0.2957    4.7407 H         1 <0>         0.1028 
      46 H21        1.0259   -0.5448    2.0109 H         1 <0>         0.4217 
@<TRIPOS>BOND
       1        1        2 1        
       2        1       26 1        
       3        1       27 1        
       4        1       28 1        
       5        2        7 ar       
       6        2        3 ar       
       7        3        4 ar       
       8        3       29 1        
       9        4        5 ar       
      10        4       30 1        
      11        5       10 1        
      12        5        6 ar       
      13        6        7 ar       
      14        6        8 1        
      15        7       31 1        
      16        8        9 1        
      17        8       46 1        
      18        9       10 2        
      19        9       11 1        
      20       11       15 1        
      21       11       12 1        
      22       11       32 1        
      23       12       13 1        
      24       12       33 1        
      25       12       34 1        
      26       13       14 1        
      27       13       35 1        
      28       13       36 1        
      29       14       15 1        
      30       14       37 1        
      31       14       38 1        
      32       15       16 am       
      33       16       17 2        
      34       16       18 1        
      35       18       23 ar       
      36       18       19 ar       
      37       19       20 ar       
      38       19       39 1        
      39       20       21 ar       
      40       20       40 1        
      41       21       22 ar       
      42       21       41 1        
      43       22       23 ar       
      44       22       24 1        
      45       23       42 1        
      46       24       25 1        
      47       25       43 1        
      48       25       44 1        
      49       25       45 1        

