#        1GCZ_R01_S0001_C0000_L00019_S0001_C0005_G0010_E0001.mol2
#        Tue Jun  6 14:20:11 2017
#        Descriptor:      8    35    32     6     9    15
#        Energy - RMSD - RMSD MassCentre:     -53.6100    999.9999    999.9999
#        Receptor:       1  Surface Point:     1  Conformer:     0
#        Ligand:        19  Surface Point:     1  Conformer:     5
#        BUDE Formal Charge: 0
#        ATOM Count: 46
#        Heavy ATOM Count: 25
@<TRIPOS>MOLECULE
ZINC61234762_1GCZ_R01_S0001_C0000_L00019_S0001_C0005_G0010_E0001
 46 49 0 0 0
SMALL
USER_CHARGES
@<TRIPOS>ATOM
       1 C1        -7.4197    3.7571    9.3834 C.3       1 <0>        -0.1124 
       2 C2        -6.0690    3.1686    9.7137 C.ar      1 <0>        -0.0668 
       3 C3        -5.3465    3.5850   10.8526 C.ar      1 <0>        -0.1269 
       4 C4        -4.0927    3.0498   11.1709 C.ar      1 <0>        -0.0588 
       5 C5        -3.5798    2.0721   10.3103 C.ar      1 <0>         0.0434 
       6 C6        -4.2638    1.6442    9.1938 C.ar      1 <0>         0.0556 
       7 C7        -5.5167    2.1861    8.8834 C.ar      1 <0>        -0.1153 
       8 N1        -3.5131    0.7003    8.5723 N.pl3     1 <0>        -0.5942 
       9 C8        -2.4165    0.5348    9.2492 C.2       1 <0>         0.2752 
      10 N2        -2.3924    1.3303   10.3024 N.2       1 <0>        -0.4719 
      11 C9        -1.3133   -0.4281    8.8807 C.3       1 <0>         0.2194 
      12 C10       -0.0605   -0.1611    9.7355 C.3       1 <0>        -0.1240 
      13 C11        1.1557   -0.6334    8.9113 C.3       1 <0>        -0.1317 
      14 C12        0.8364   -0.1490    7.4849 C.3       1 <0>         0.0944 
      15 N3        -0.6296   -0.2438    7.4341 N.am      1 <0>        -0.5969 
      16 C13       -1.3506   -0.1826    6.3182 C.2       1 <0>         0.5882 
      17 O1        -2.5761   -0.2714    6.3727 O.2       1 <0>        -0.5236 
      18 C14       -0.6793   -0.0080    5.0109 C.ar      1 <0>        -0.0888 
      19 C15        0.7152    0.0935    4.9419 C.ar      1 <0>        -0.0994 
      20 C16        1.3228    0.2593    3.6916 C.ar      1 <0>        -0.0862 
      21 C17        0.5578    0.3236    2.5212 C.ar      1 <0>        -0.1841 
      22 C18       -0.8370    0.2223    2.5845 C.ar      1 <0>         0.1199 
      23 C19       -1.4397    0.0561    3.8372 C.ar      1 <0>        -0.1264 
      24 O2        -1.6695    0.2761    1.4976 O.3       1 <0>        -0.3151 
      25 C20       -1.3712    1.2255    0.4707 C.3       1 <0>         0.0259 
      26 H1        -8.2015    3.1241    9.7977 H         1 <0>         0.0723 
      27 H2        -7.5346    3.8159    8.3031 H         1 <0>         0.0697 
      28 H3        -7.4947    4.7543    9.8117 H         1 <0>         0.0661 
      29 H4        -5.7850    4.3412   11.4870 H         1 <0>         0.1296 
      30 H5        -3.5243    3.3587   12.0359 H         1 <0>         0.1284 
      31 H6        -6.0447    1.8399    8.0072 H         1 <0>         0.1225 
      32 H7        -1.6794   -1.4385    9.0508 H         1 <0>         0.0993 
      33 H8         0.0136    0.9014    9.9569 H         1 <0>         0.0861 
      34 H9        -0.1366   -0.6969   10.6795 H         1 <0>         0.0925 
      35 H10        1.2471   -1.7170    8.9454 H         1 <0>         0.0935 
      36 H11        2.0800   -0.1988    9.2862 H         1 <0>         0.0832 
      37 H12        1.1356    0.8834    7.3160 H         1 <0>         0.0807 
      38 H13        1.2776   -0.7850    6.7204 H         1 <0>         0.0890 
      39 H14        1.3049    0.0427    5.8451 H         1 <0>         0.1351 
      40 H15        2.3972    0.3395    3.6170 H         1 <0>         0.1337 
      41 H16        1.0752    0.4525    1.5821 H         1 <0>         0.1331 
      42 H17       -2.5155   -0.0241    3.8871 H         1 <0>         0.1477 
      43 H18       -0.3901    1.0103    0.0526 H         1 <0>         0.0569 
      44 H19       -2.1227    1.1588   -0.3132 H         1 <0>         0.0568 
      45 H20       -1.3744    2.2283    0.8927 H         1 <0>         0.1028 
      46 H21       -3.7799    0.2023    7.7137 H         1 <0>         0.4217 
@<TRIPOS>BOND
       1        1        2 1        
       2        1       26 1        
       3        1       27 1        
       4        1       28 1        
       5        2        7 ar       
       6        2        3 ar       
       7        3        4 ar       
       8        3       29 1        
       9        4        5 ar       
      10        4       30 1        
      11        5       10 1        
      12        5        6 ar       
      13        6        7 ar       
      14        6        8 1        
      15        7       31 1        
      16        8        9 1        
      17        8       46 1        
      18        9       10 2        
      19        9       11 1        
      20       11       15 1        
      21       11       12 1        
      22       11       32 1        
      23       12       13 1        
      24       12       33 1        
      25       12       34 1        
      26       13       14 1        
      27       13       35 1        
      28       13       36 1        
      29       14       15 1        
      30       14       37 1        
      31       14       38 1        
      32       15       16 am       
      33       16       17 2        
      34       16       18 1        
      35       18       23 ar       
      36       18       19 ar       
      37       19       20 ar       
      38       19       39 1        
      39       20       21 ar       
      40       20       40 1        
      41       21       22 ar       
      42       21       41 1        
      43       22       23 ar       
      44       22       24 1        
      45       23       42 1        
      46       24       25 1        
      47       25       43 1        
      48       25       44 1        
      49       25       45 1        

