#        1GCZ_R01_S0001_C0000_L00019_S0001_C0006_G0010_E0001.mol2
#        Tue Jun  6 10:01:50 2017
#        Descriptor:     12    35    15    10     9    13
#        Energy - RMSD - RMSD MassCentre:     -68.1875    999.9999    999.9999
#        Receptor:       1  Surface Point:     1  Conformer:     0
#        Ligand:        19  Surface Point:     1  Conformer:     6
#        BUDE Formal Charge: 0
#        ATOM Count: 46
#        Heavy ATOM Count: 25
@<TRIPOS>MOLECULE
ZINC61234762_1GCZ_R01_S0001_C0000_L00019_S0001_C0006_G0010_E0001
 46 49 0 0 0
SMALL
USER_CHARGES
@<TRIPOS>ATOM
       1 C1         8.1159   -0.6278    6.2846 C.3       1 <0>        -0.1124 
       2 C2         6.8955    0.1310    6.7476 C.ar      1 <0>        -0.0668 
       3 C3         6.6899    0.4262    8.1126 C.ar      1 <0>        -0.1269 
       4 C4         5.5628    1.1275    8.5572 C.ar      1 <0>        -0.0588 
       5 C5         4.6404    1.5335    7.5855 C.ar      1 <0>         0.0434 
       6 C6         4.8166    1.2624    6.2465 C.ar      1 <0>         0.0556 
       7 C7         5.9467    0.5596    5.8119 C.ar      1 <0>        -0.1153 
       8 N1         3.7634    1.7812    5.5666 N.pl3     1 <0>        -0.5942 
       9 C8         2.9629    2.3489    6.4179 C.2       1 <0>         0.2752 
      10 N2         3.4293    2.2331    7.6474 N.2       1 <0>        -0.4719 
      11 C9         1.6698    3.0399    6.0564 C.3       1 <0>         0.2194 
      12 C10        0.8519    3.3453    7.3250 C.3       1 <0>        -0.1240 
      13 C11       -0.6322    3.3875    6.9042 C.3       1 <0>        -0.1317 
      14 C12       -0.7656    2.2035    5.9286 C.3       1 <0>         0.0944 
      15 N3         0.5574    2.1634    5.2894 N.am      1 <0>        -0.5969 
      16 C13        0.8412    1.4761    4.1866 C.2       1 <0>         0.5882 
      17 O1         1.9798    1.5019    3.7224 O.2       1 <0>        -0.5236 
      18 C14       -0.2123    0.6806    3.5177 C.ar      1 <0>        -0.0888 
      19 C15       -1.5104    0.6472    4.0409 C.ar      1 <0>        -0.0994 
      20 C16       -2.4862   -0.1149    3.3875 C.ar      1 <0>        -0.0862 
      21 C17       -2.1805   -0.8363    2.2277 C.ar      1 <0>        -0.1841 
      22 C18       -0.8842   -0.8062    1.7001 C.ar      1 <0>         0.1199 
      23 C19        0.0880   -0.0421    2.3569 C.ar      1 <0>        -0.1264 
      24 O2        -0.4884   -1.4789    0.5741 O.3       1 <0>        -0.3151 
      25 C20        0.3937   -0.8102   -0.3314 C.3       1 <0>         0.0259 
      26 H1         8.8895    0.0771    5.9875 H         1 <0>         0.0723 
      27 H2         7.8516   -1.2557    5.4362 H         1 <0>         0.0697 
      28 H3         8.4846   -1.2508    7.0967 H         1 <0>         0.0661 
      29 H4         7.4309    0.0931    8.8243 H         1 <0>         0.1296 
      30 H5         5.3873    1.3591    9.5974 H         1 <0>         0.1284 
      31 H6         6.0753    0.3563    4.7590 H         1 <0>         0.1225 
      32 H7         1.9170    3.9619    5.5342 H         1 <0>         0.0993 
      33 H8         1.0200    2.5673    8.0665 H         1 <0>         0.0861 
      34 H9         1.1737    4.2927    7.7526 H         1 <0>         0.0925 
      35 H10       -0.8666    4.3288    6.4116 H         1 <0>         0.0935 
      36 H11       -1.2899    3.2765    7.7637 H         1 <0>         0.0832 
      37 H12       -0.9473    1.2592    6.4378 H         1 <0>         0.0807 
      38 H13       -1.5369    2.3663    5.1788 H         1 <0>         0.0890 
      39 H14       -1.7459    1.2049    4.9351 H         1 <0>         0.1351 
      40 H15       -3.4936   -0.1536    3.7751 H         1 <0>         0.1337 
      41 H16       -2.9693   -1.4085    1.7621 H         1 <0>         0.1331 
      42 H17        1.0879   -0.0166    1.9498 H         1 <0>         0.1477 
      43 H18        1.3219   -0.5661    0.1811 H         1 <0>         0.0569 
      44 H19        0.6059   -1.4610   -1.1769 H         1 <0>         0.0568 
      45 H20       -0.0769    0.1044   -0.6861 H         1 <0>         0.1028 
      46 H21        3.6341    1.7323    4.5480 H         1 <0>         0.4217 
@<TRIPOS>BOND
       1        1        2 1        
       2        1       26 1        
       3        1       27 1        
       4        1       28 1        
       5        2        7 ar       
       6        2        3 ar       
       7        3        4 ar       
       8        3       29 1        
       9        4        5 ar       
      10        4       30 1        
      11        5       10 1        
      12        5        6 ar       
      13        6        7 ar       
      14        6        8 1        
      15        7       31 1        
      16        8        9 1        
      17        8       46 1        
      18        9       10 2        
      19        9       11 1        
      20       11       15 1        
      21       11       12 1        
      22       11       32 1        
      23       12       13 1        
      24       12       33 1        
      25       12       34 1        
      26       13       14 1        
      27       13       35 1        
      28       13       36 1        
      29       14       15 1        
      30       14       37 1        
      31       14       38 1        
      32       15       16 am       
      33       16       17 2        
      34       16       18 1        
      35       18       23 ar       
      36       18       19 ar       
      37       19       20 ar       
      38       19       39 1        
      39       20       21 ar       
      40       20       40 1        
      41       21       22 ar       
      42       21       41 1        
      43       22       23 ar       
      44       22       24 1        
      45       23       42 1        
      46       24       25 1        
      47       25       43 1        
      48       25       44 1        
      49       25       45 1        

