#        1GCZ_R01_S0001_C0000_L00019_S0001_C0006_G0010_E0001.mol2
#        Tue Jun  6 14:20:13 2017
#        Descriptor:     31    18    30    12     8    13
#        Energy - RMSD - RMSD MassCentre:     -56.7888    999.9999    999.9999
#        Receptor:       1  Surface Point:     1  Conformer:     0
#        Ligand:        19  Surface Point:     1  Conformer:     6
#        BUDE Formal Charge: 0
#        ATOM Count: 46
#        Heavy ATOM Count: 25
@<TRIPOS>MOLECULE
ZINC61234762_1GCZ_R01_S0001_C0000_L00019_S0001_C0006_G0010_E0001
 46 49 0 0 0
SMALL
USER_CHARGES
@<TRIPOS>ATOM
       1 C1         8.5568   -4.5753    4.9147 C.3       1 <0>        -0.1124 
       2 C2         8.0359   -3.3355    5.6012 C.ar      1 <0>        -0.0668 
       3 C3         8.3350   -3.0662    6.9542 C.ar      1 <0>        -0.1269 
       4 C4         7.8581   -1.9219    7.6047 C.ar      1 <0>        -0.0588 
       5 C5         7.0692   -1.0434    6.8526 C.ar      1 <0>         0.0434 
       6 C6         6.7640   -1.2788    5.5302 C.ar      1 <0>         0.0556 
       7 C7         7.2449   -2.4264    4.8888 C.ar      1 <0>        -0.1153 
       8 N1         5.9921   -0.2560    5.0845 N.pl3     1 <0>        -0.5942 
       9 C8         5.8143    0.5819    6.0614 C.2       1 <0>         0.2752 
      10 N2         6.4319    0.1668    7.1518 N.2       1 <0>        -0.4719 
      11 C9         5.0051    1.8535    5.9698 C.3       1 <0>         0.2194 
      12 C10        4.7785    2.4474    7.3724 C.3       1 <0>        -0.1240 
      13 C11        3.4687    3.2611    7.3103 C.3       1 <0>        -0.1317 
      14 C12        2.5303    2.3731    6.4723 C.3       1 <0>         0.0944 
      15 N3         3.4583    1.7113    5.5441 N.am      1 <0>        -0.5969 
      16 C13        3.0875    1.0482    4.4525 C.2       1 <0>         0.5882 
      17 O1         3.9368    0.5249    3.7331 O.2       1 <0>        -0.5236 
      18 C14        1.6536    0.9396    4.1028 C.ar      1 <0>        -0.0888 
      19 C15        0.6819    1.5330    4.9174 C.ar      1 <0>        -0.0994 
      20 C16       -0.6670    1.4130    4.5624 C.ar      1 <0>        -0.0862 
      21 C17       -1.0503    0.7129    3.4125 C.ar      1 <0>        -0.1841 
      22 C18       -0.0828    0.1179    2.5944 C.ar      1 <0>         0.1199 
      23 C19        1.2649    0.2413    2.9534 C.ar      1 <0>        -0.1264 
      24 O2        -0.3587   -0.5879    1.4530 O.3       1 <0>        -0.3151 
      25 C20        0.4989   -0.3997    0.3242 C.3       1 <0>         0.0259 
      26 H1         9.4855   -4.3406    4.3991 H         1 <0>         0.0723 
      27 H2         7.8206   -4.9269    4.1947 H         1 <0>         0.0697 
      28 H3         8.7388   -5.3503    5.6561 H         1 <0>         0.0661 
      29 H4         8.9490   -3.7736    7.4919 H         1 <0>         0.1296 
      30 H5         8.0739   -1.7014    8.6398 H         1 <0>         0.1284 
      31 H6         7.0015   -2.5981    3.8507 H         1 <0>         0.1225 
      32 H7         5.5537    2.5557    5.3454 H         1 <0>         0.0993 
      33 H8         4.6989    1.6449    8.1026 H         1 <0>         0.0861 
      34 H9         5.6250    3.0722    7.6501 H         1 <0>         0.0925 
      35 H10        3.6342    4.2215    6.8265 H         1 <0>         0.0935 
      36 H11        3.0685    3.4423    8.3056 H         1 <0>         0.0832 
      37 H12        2.0218    1.6195    7.0700 H         1 <0>         0.0807 
      38 H13        1.7961    2.9517    5.9157 H         1 <0>         0.0890 
      39 H14        0.9783    2.0739    5.8038 H         1 <0>         0.1351 
      40 H15       -1.4319    1.8637    5.1774 H         1 <0>         0.1337 
      41 H16       -2.1038    0.6496    3.1835 H         1 <0>         0.1331 
      42 H17        2.0123   -0.2157    2.3220 H         1 <0>         0.1477 
      43 H18        1.5133   -0.6921    0.5873 H         1 <0>         0.0569 
      44 H19        0.1474   -1.0121   -0.5035 H         1 <0>         0.0568 
      45 H20        0.4872    0.6481    0.0313 H         1 <0>         0.1028 
      46 H21        5.6207   -0.1665    4.1302 H         1 <0>         0.4217 
@<TRIPOS>BOND
       1        1        2 1        
       2        1       26 1        
       3        1       27 1        
       4        1       28 1        
       5        2        7 ar       
       6        2        3 ar       
       7        3        4 ar       
       8        3       29 1        
       9        4        5 ar       
      10        4       30 1        
      11        5       10 1        
      12        5        6 ar       
      13        6        7 ar       
      14        6        8 1        
      15        7       31 1        
      16        8        9 1        
      17        8       46 1        
      18        9       10 2        
      19        9       11 1        
      20       11       15 1        
      21       11       12 1        
      22       11       32 1        
      23       12       13 1        
      24       12       33 1        
      25       12       34 1        
      26       13       14 1        
      27       13       35 1        
      28       13       36 1        
      29       14       15 1        
      30       14       37 1        
      31       14       38 1        
      32       15       16 am       
      33       16       17 2        
      34       16       18 1        
      35       18       23 ar       
      36       18       19 ar       
      37       19       20 ar       
      38       19       39 1        
      39       20       21 ar       
      40       20       40 1        
      41       21       22 ar       
      42       21       41 1        
      43       22       23 ar       
      44       22       24 1        
      45       23       42 1        
      46       24       25 1        
      47       25       43 1        
      48       25       44 1        
      49       25       45 1        

