#        1GCZ_R01_S0001_C0000_L00020_S0001_C0000_G0010_E0001.mol2
#        Tue Jun  6 14:20:15 2017
#        Descriptor:     27    12    18     9     8    11
#        Energy - RMSD - RMSD MassCentre:     -67.1707    999.9999    999.9999
#        Receptor:       1  Surface Point:     1  Conformer:     0
#        Ligand:        20  Surface Point:     1  Conformer:     0
#        BUDE Formal Charge: 0
#        ATOM Count: 55
#        Heavy ATOM Count: 28
@<TRIPOS>MOLECULE
ZINC61153122_1GCZ_R01_S0001_C0000_L00020_S0001_C0000_G0010_E0001
 55 58 0 0 0
SMALL
USER_CHARGES
@<TRIPOS>ATOM
       1 C1        -2.4736   -0.2512    7.1673 C.ar      1 <0>        -0.0442 
       2 C2        -2.4778   -0.2743    8.5463 C.ar      1 <0>        -0.1492 
       3 C3        -1.2819   -0.2448    9.2459 C.ar      1 <0>         0.1157 
       4 C4        -0.0760   -0.1920    8.5650 C.ar      1 <0>        -0.1468 
       5 C5        -0.0603   -0.1681    7.1861 C.ar      1 <0>        -0.0895 
       6 C6        -1.2619   -0.1980    6.4764 C.ar      1 <0>        -0.0299 
       7 C7        -1.2512   -0.1735    4.9983 C.2       1 <0>         0.2272 
       8 N1        -2.2334   -0.5327    4.2049 N.2       1 <0>        -0.2636 
       9 N2        -1.8833   -0.3829    2.9776 N.2       1 <0>        -0.2879 
      10 C8        -0.6556    0.0814    2.9120 C.2       1 <0>         0.1630 
      11 N3        -0.2122    0.2358    4.1948 N.pl3     1 <0>        -0.4552 
      12 C9         1.0974    0.7317    4.6251 C.3       1 <0>         0.0974 
      13 C10        2.0927   -0.4294    4.6704 C.3       1 <0>         0.0332 
      14 N4         3.4059    0.0679    5.1019 N.3       1 <0>        -0.5315 
      15 C11        3.9818    0.9745    4.0980 C.3       1 <0>         0.0093 
      16 C12        5.3185    1.5146    4.6131 C.3       1 <0>         0.0640 
      17 O1         6.1861    0.4180    4.9134 O.3       1 <0>        -0.3828 
      18 C13        5.6567   -0.4849    5.8881 C.3       1 <0>         0.0640 
      19 C14        4.3235   -1.0452    5.3858 C.3       1 <0>         0.0177 
      20 S1         0.2478    0.4435    1.4431 S.3       1 <0>         0.0123 
      21 C15       -0.9049    0.0285    0.1054 C.3       1 <0>        -0.0946 
      22 C16       -0.2383    0.2997   -1.2448 C.3       1 <0>         0.1064 
      23 C17       -1.2504    0.0675   -2.3696 C.3       1 <0>        -0.1441 
      24 C18       -0.5595    0.2822   -3.7198 C.3       1 <0>        -0.1224 
      25 C19        0.6459   -0.6576   -3.8193 C.3       1 <0>        -0.1591 
      26 C20        1.5848   -0.3974   -2.6384 C.3       1 <0>         0.0610 
      27 O2         0.8716   -0.5844   -1.4143 O.3       1 <0>        -0.3733 
      28 F1        -1.2916   -0.2673   10.5967 F         1 <0>        -0.1330 
      29 H1        -3.4060   -0.2786    6.6230 H         1 <0>         0.1477 
      30 H2        -3.4147   -0.3151    9.0819 H         1 <0>         0.1461 
      31 H3         0.8532   -0.1693    9.1151 H         1 <0>         0.1443 
      32 H4         0.8799   -0.1262    6.6564 H         1 <0>         0.1448 
      33 H5         1.4500    1.4852    3.9208 H         1 <0>         0.1036 
      34 H6         1.0102    1.1744    5.6173 H         1 <0>         0.1173 
      35 H7         1.7402   -1.1829    5.3746 H         1 <0>         0.0884 
      36 H8         2.1799   -0.8721    3.6781 H         1 <0>         0.0565 
      37 H9         4.1432    0.4313    3.1670 H         1 <0>         0.0519 
      38 H10        3.2975    1.8045    3.9221 H         1 <0>         0.0874 
      39 H11        5.7765    2.1422    3.8487 H         1 <0>         0.1012 
      40 H12        5.1501    2.1029    5.5152 H         1 <0>         0.0619 
      41 H13        6.3593   -1.3033    6.0456 H         1 <0>         0.1015 
      42 H14        5.4982    0.0453    6.8271 H         1 <0>         0.0623 
      43 H15        3.8885   -1.6895    6.1498 H         1 <0>         0.0895 
      44 H16        4.4903   -1.6207    4.4753 H         1 <0>         0.0491 
      45 H17       -1.1748   -1.0254    0.1723 H         1 <0>         0.1064 
      46 H18       -1.8027    0.6400    0.1967 H         1 <0>         0.1120 
      47 H19        0.1109    1.3317   -1.2770 H         1 <0>         0.0703 
      48 H20       -1.6303   -0.9526   -2.3131 H         1 <0>         0.0780 
      49 H21       -2.0766    0.7710   -2.2673 H         1 <0>         0.0792 
      50 H22       -1.2595    0.0640   -4.5264 H         1 <0>         0.0726 
      51 H23       -0.2231    1.3162   -3.7969 H         1 <0>         0.0656 
      52 H24        0.3044   -1.6923   -3.7920 H         1 <0>         0.0734 
      53 H25        1.1759   -0.4725   -4.7537 H         1 <0>         0.0757 
      54 H26        2.4232   -1.0927   -2.6805 H         1 <0>         0.0972 
      55 H27        1.9578    0.6256   -2.6891 H         1 <0>         0.0518 
@<TRIPOS>BOND
       1        1        6 ar       
       2        1        2 ar       
       3        1       29 1        
       4        2        3 ar       
       5        2       30 1        
       6        3        4 ar       
       7        3       28 1        
       8        4        5 ar       
       9        4       31 1        
      10        5        6 ar       
      11        5       32 1        
      12        6        7 1        
      13        7       11 1        
      14        7        8 2        
      15        8        9 1        
      16        9       10 2        
      17       10       11 1        
      18       10       20 1        
      19       11       12 1        
      20       12       13 1        
      21       12       33 1        
      22       12       34 1        
      23       13       14 1        
      24       13       35 1        
      25       13       36 1        
      26       14       19 1        
      27       14       15 1        
      28       15       16 1        
      29       15       37 1        
      30       15       38 1        
      31       16       17 1        
      32       16       39 1        
      33       16       40 1        
      34       17       18 1        
      35       18       19 1        
      36       18       41 1        
      37       18       42 1        
      38       19       43 1        
      39       19       44 1        
      40       20       21 1        
      41       21       22 1        
      42       21       45 1        
      43       21       46 1        
      44       22       27 1        
      45       22       23 1        
      46       22       47 1        
      47       23       24 1        
      48       23       48 1        
      49       23       49 1        
      50       24       25 1        
      51       24       50 1        
      52       24       51 1        
      53       25       26 1        
      54       25       52 1        
      55       25       53 1        
      56       26       27 1        
      57       26       54 1        
      58       26       55 1        

