#        1GCZ_R01_S0001_C0000_L00020_S0001_C0001_G0010_E0001.mol2
#        Tue Jun  6 10:01:52 2017
#        Descriptor:      4    11    11    14     7    13
#        Energy - RMSD - RMSD MassCentre:     -56.2086    999.9999    999.9999
#        Receptor:       1  Surface Point:     1  Conformer:     0
#        Ligand:        20  Surface Point:     1  Conformer:     1
#        BUDE Formal Charge: 0
#        ATOM Count: 55
#        Heavy ATOM Count: 28
@<TRIPOS>MOLECULE
ZINC61153122_1GCZ_R01_S0001_C0000_L00020_S0001_C0001_G0010_E0001
 55 58 0 0 0
SMALL
USER_CHARGES
@<TRIPOS>ATOM
       1 C1         2.5264   -0.8559    5.7754 C.ar      1 <0>        -0.0442 
       2 C2         1.1391   -0.9616    5.6202 C.ar      1 <0>        -0.1492 
       3 C3         0.4114    0.1085    5.0862 C.ar      1 <0>         0.1157 
       4 C4         1.0652    1.2914    4.7302 C.ar      1 <0>        -0.1468 
       5 C5         2.4528    1.3979    4.8815 C.ar      1 <0>        -0.0895 
       6 C6         3.1838    0.3200    5.3950 C.ar      1 <0>        -0.0299 
       7 C7         4.6536    0.4251    5.5335 C.2       1 <0>         0.2272 
       8 N1         5.2558    1.5370    5.9122 N.2       1 <0>        -0.2636 
       9 N2         6.6538    1.2254    5.9144 N.2       1 <0>        -0.2879 
      10 C8         6.7368   -0.0369    5.5377 C.2       1 <0>         0.1630 
      11 N3         5.5178   -0.6076    5.2816 N.pl3     1 <0>        -0.4552 
      12 C9         5.1996   -1.9772    4.8532 C.3       1 <0>         0.0974 
      13 C10        5.2587   -2.9154    6.0578 C.3       1 <0>         0.0332 
      14 N4         4.9237   -4.2815    5.6309 N.3       1 <0>        -0.5315 
      15 C11        3.5657   -4.4812    5.0303 C.3       1 <0>         0.0093 
      16 C12        3.3141   -5.9483    4.6356 C.3       1 <0>         0.0640 
      17 O1         3.5088   -6.7951    5.7712 O.3       1 <0>        -0.3828 
      18 C13        4.8358   -6.6923    6.2940 C.3       1 <0>         0.0640 
      19 C14        5.1240   -5.2428    6.7247 C.3       1 <0>         0.0177 
      20 S1         8.2439   -0.9482    5.3626 S.3       1 <0>         0.0123 
      21 C15        9.6526    0.1243    5.7843 C.3       1 <0>        -0.0946 
      22 C16        9.6839    1.3198    4.8332 C.3       1 <0>         0.1064 
      23 C17        9.9643    0.8704    3.3870 C.3       1 <0>        -0.1441 
      24 C18       10.0993    2.1013    2.4714 C.3       1 <0>        -0.1224 
      25 C19       11.1835    3.0392    3.0337 C.3       1 <0>        -0.1591 
      26 C20       10.8590    3.4020    4.4949 C.3       1 <0>         0.0610 
      27 O2        10.7437    2.2245    5.2995 O.3       1 <0>        -0.3733 
      28 F1        -0.9244   -0.0004    4.9238 F         1 <0>        -0.1330 
      29 H1         3.0896   -1.6788    6.1900 H         1 <0>         0.1477 
      30 H2         0.6238   -1.8649    5.9113 H         1 <0>         0.1461 
      31 H3         0.4936    2.1172    4.3333 H         1 <0>         0.1443 
      32 H4         2.9603    2.3107    4.6063 H         1 <0>         0.1448 
      33 H5         5.9224   -2.3003    4.1069 H         1 <0>         0.1036 
      34 H6         4.2004   -2.0006    4.4234 H         1 <0>         0.1173 
      35 H7         4.5454   -2.5844    6.8098 H         1 <0>         0.0884 
      36 H8         6.2622   -2.9019    6.4782 H         1 <0>         0.0565 
      37 H9         3.4409   -3.8441    4.1574 H         1 <0>         0.0519 
      38 H10        2.7691   -4.2452    5.7328 H         1 <0>         0.0874 
      39 H11        2.3058   -6.0781    4.2479 H         1 <0>         0.1012 
      40 H12        4.0136   -6.2742    3.8684 H         1 <0>         0.0619 
      41 H13        4.9578   -7.3605    7.1440 H         1 <0>         0.1015 
      42 H14        5.5242   -7.0096    5.5136 H         1 <0>         0.0623 
      43 H15        6.1570   -5.1919    7.0625 H         1 <0>         0.0895 
      44 H16        4.4795   -5.0111    7.5700 H         1 <0>         0.0491 
      45 H17       10.5781   -0.4398    5.6894 H         1 <0>         0.1064 
      46 H18        9.5454    0.4771    6.8078 H         1 <0>         0.1120 
      47 H19        8.7245    1.8302    4.8855 H         1 <0>         0.0703 
      48 H20       10.9019    0.3188    3.3715 H         1 <0>         0.0780 
      49 H21        9.1767    0.2117    3.0270 H         1 <0>         0.0792 
      50 H22        9.1502    2.6330    2.4526 H         1 <0>         0.0726 
      51 H23       10.3375    1.8018    1.4530 H         1 <0>         0.0656 
      52 H24       12.1386    2.5185    3.0135 H         1 <0>         0.0734 
      53 H25       11.2730    3.9340    2.4214 H         1 <0>         0.0757 
      54 H26        9.9385    3.9795    4.5480 H         1 <0>         0.0972 
      55 H27       11.6579    4.0083    4.9169 H         1 <0>         0.0518 
@<TRIPOS>BOND
       1        1        6 ar       
       2        1        2 ar       
       3        1       29 1        
       4        2        3 ar       
       5        2       30 1        
       6        3        4 ar       
       7        3       28 1        
       8        4        5 ar       
       9        4       31 1        
      10        5        6 ar       
      11        5       32 1        
      12        6        7 1        
      13        7       11 1        
      14        7        8 2        
      15        8        9 1        
      16        9       10 2        
      17       10       11 1        
      18       10       20 1        
      19       11       12 1        
      20       12       13 1        
      21       12       33 1        
      22       12       34 1        
      23       13       14 1        
      24       13       35 1        
      25       13       36 1        
      26       14       19 1        
      27       14       15 1        
      28       15       16 1        
      29       15       37 1        
      30       15       38 1        
      31       16       17 1        
      32       16       39 1        
      33       16       40 1        
      34       17       18 1        
      35       18       19 1        
      36       18       41 1        
      37       18       42 1        
      38       19       43 1        
      39       19       44 1        
      40       20       21 1        
      41       21       22 1        
      42       21       45 1        
      43       21       46 1        
      44       22       27 1        
      45       22       23 1        
      46       22       47 1        
      47       23       24 1        
      48       23       48 1        
      49       23       49 1        
      50       24       25 1        
      51       24       50 1        
      52       24       51 1        
      53       25       26 1        
      54       25       52 1        
      55       25       53 1        
      56       26       27 1        
      57       26       54 1        
      58       26       55 1        

