#        1GCZ_R01_S0001_C0000_L00020_S0001_C0001_G0010_E0001.mol2
#        Tue Jun  6 14:20:16 2017
#        Descriptor:     21     6    26    13     9    14
#        Energy - RMSD - RMSD MassCentre:     -55.9852    999.9999    999.9999
#        Receptor:       1  Surface Point:     1  Conformer:     0
#        Ligand:        20  Surface Point:     1  Conformer:     1
#        BUDE Formal Charge: 0
#        ATOM Count: 55
#        Heavy ATOM Count: 28
@<TRIPOS>MOLECULE
ZINC61153122_1GCZ_R01_S0001_C0000_L00020_S0001_C0001_G0010_E0001
 55 58 0 0 0
SMALL
USER_CHARGES
@<TRIPOS>ATOM
       1 C1         2.4235    3.1118    7.2611 C.ar      1 <0>        -0.0442 
       2 C2         1.2785    3.9168    7.2874 C.ar      1 <0>        -0.1492 
       3 C3         1.3773    5.2832    6.9994 C.ar      1 <0>         0.1157 
       4 C4         2.6218    5.8494    6.7092 C.ar      1 <0>        -0.1468 
       5 C5         3.7674    5.0455    6.6790 C.ar      1 <0>        -0.0895 
       6 C6         3.6657    3.6749    6.9455 C.ar      1 <0>        -0.0299 
       7 C7         4.8738    2.8216    6.8912 C.2       1 <0>         0.2272 
       8 N1         6.0536    3.2289    7.3207 N.2       1 <0>        -0.2636 
       9 N2         6.9388    2.1268    7.0897 N.2       1 <0>        -0.2879 
      10 C8         6.1943    1.1810    6.5482 C.2       1 <0>         0.1630 
      11 N3         4.8827    1.5454    6.3931 N.pl3     1 <0>        -0.4552 
      12 C9         3.7583    0.7750    5.8428 C.3       1 <0>         0.0974 
      13 C10        3.2439   -0.2022    6.8989 C.3       1 <0>         0.0332 
      14 N4         2.1088   -0.9599    6.3528 N.3       1 <0>        -0.5315 
      15 C11        0.9147   -0.1621    5.9257 C.3       1 <0>         0.0093 
      16 C12       -0.2188   -1.0544    5.3868 C.3       1 <0>         0.0640 
      17 O1        -0.5724   -2.0327    6.3680 O.3       1 <0>        -0.3828 
      18 C13        0.5343   -2.8710    6.7107 C.3       1 <0>         0.0640 
      19 C14        1.6860   -2.0214    7.2774 C.3       1 <0>         0.0177 
      20 S1         6.7798   -0.4139    6.0519 S.3       1 <0>         0.0123 
      21 C15        8.5602   -0.5428    6.4068 C.3       1 <0>        -0.0946 
      22 C16        9.3143    0.5280    5.6198 C.3       1 <0>         0.1064 
      23 C17        9.2073    0.2801    4.1037 C.3       1 <0>        -0.1441 
      24 C18       10.0650    1.3073    3.3416 C.3       1 <0>        -0.1224 
      25 C19       11.5130    1.2498    3.8626 C.3       1 <0>        -0.1591 
      26 C20       11.5316    1.4561    5.3888 C.3       1 <0>         0.0610 
      27 O2        10.7197    0.4781    6.0457 O.3       1 <0>        -0.3733 
      28 F1         0.2699    6.0553    7.0111 F         1 <0>        -0.1330 
      29 H1         2.3505    2.0580    7.4860 H         1 <0>         0.1477 
      30 H2         0.3163    3.4907    7.5302 H         1 <0>         0.1461 
      31 H3         2.6906    6.9073    6.5032 H         1 <0>         0.1443 
      32 H4         4.7300    5.4807    6.4541 H         1 <0>         0.1448 
      33 H5         4.0929    0.2202    4.9687 H         1 <0>         0.1036 
      34 H6         2.9582    1.4541    5.5561 H         1 <0>         0.1173 
      35 H7         2.9218    0.3517    7.7783 H         1 <0>         0.0884 
      36 H8         4.0408   -0.8899    7.1745 H         1 <0>         0.0565 
      37 H9         1.1970    0.5640    5.1663 H         1 <0>         0.0519 
      38 H10        0.4667    0.3799    6.7559 H         1 <0>         0.0874 
      39 H11       -1.0921   -0.4588    5.1293 H         1 <0>         0.1012 
      40 H12        0.0954   -1.5930    4.4951 H         1 <0>         0.0619 
      41 H13        0.2296   -3.6148    7.4439 H         1 <0>         0.1015 
      42 H14        0.8449   -3.3937    5.8085 H         1 <0>         0.0623 
      43 H15        2.5271   -2.6833    7.4726 H         1 <0>         0.0895 
      44 H16        1.3569   -1.6032    8.2264 H         1 <0>         0.0491 
      45 H17        8.9173   -1.5279    6.1139 H         1 <0>         0.1064 
      46 H18        8.7285   -0.3971    7.4717 H         1 <0>         0.1120 
      47 H19        8.8958    1.5010    5.8689 H         1 <0>         0.0703 
      48 H20        9.5838   -0.7177    3.8886 H         1 <0>         0.0780 
      49 H21        8.1710    0.3301    3.7756 H         1 <0>         0.0792 
      50 H22        9.6661    2.3034    3.5221 H         1 <0>         0.0726 
      51 H23       10.0319    1.1205    2.2704 H         1 <0>         0.0656 
      52 H24       11.9225    0.2657    3.6445 H         1 <0>         0.0734 
      53 H25       12.1314    1.9921    3.3623 H         1 <0>         0.0757 
      54 H26       11.1857    2.4561    5.6417 H         1 <0>         0.0972 
      55 H27       12.5451    1.3476    5.7695 H         1 <0>         0.0518 
@<TRIPOS>BOND
       1        1        6 ar       
       2        1        2 ar       
       3        1       29 1        
       4        2        3 ar       
       5        2       30 1        
       6        3        4 ar       
       7        3       28 1        
       8        4        5 ar       
       9        4       31 1        
      10        5        6 ar       
      11        5       32 1        
      12        6        7 1        
      13        7       11 1        
      14        7        8 2        
      15        8        9 1        
      16        9       10 2        
      17       10       11 1        
      18       10       20 1        
      19       11       12 1        
      20       12       13 1        
      21       12       33 1        
      22       12       34 1        
      23       13       14 1        
      24       13       35 1        
      25       13       36 1        
      26       14       19 1        
      27       14       15 1        
      28       15       16 1        
      29       15       37 1        
      30       15       38 1        
      31       16       17 1        
      32       16       39 1        
      33       16       40 1        
      34       17       18 1        
      35       18       19 1        
      36       18       41 1        
      37       18       42 1        
      38       19       43 1        
      39       19       44 1        
      40       20       21 1        
      41       21       22 1        
      42       21       45 1        
      43       21       46 1        
      44       22       27 1        
      45       22       23 1        
      46       22       47 1        
      47       23       24 1        
      48       23       48 1        
      49       23       49 1        
      50       24       25 1        
      51       24       50 1        
      52       24       51 1        
      53       25       26 1        
      54       25       52 1        
      55       25       53 1        
      56       26       27 1        
      57       26       54 1        
      58       26       55 1        

