#        1GCZ_R01_S0001_C0000_L00020_S0001_C0002_G0010_E0001.mol2
#        Tue Jun  6 10:01:52 2017
#        Descriptor:     17    11    33    12     7    14
#        Energy - RMSD - RMSD MassCentre:     -56.3766    999.9999    999.9999
#        Receptor:       1  Surface Point:     1  Conformer:     0
#        Ligand:        20  Surface Point:     1  Conformer:     2
#        BUDE Formal Charge: 0
#        ATOM Count: 55
#        Heavy ATOM Count: 28
@<TRIPOS>MOLECULE
ZINC61153122_1GCZ_R01_S0001_C0000_L00020_S0001_C0002_G0010_E0001
 55 58 0 0 0
SMALL
USER_CHARGES
@<TRIPOS>ATOM
       1 C1         0.4622   -0.0462    5.0067 C.ar      1 <0>        -0.0442 
       2 C2        -0.7643   -0.0675    4.3322 C.ar      1 <0>        -0.1492 
       3 C3        -0.9284    0.6725    3.1552 C.ar      1 <0>         0.1157 
       4 C4         0.1235    1.4518    2.6658 C.ar      1 <0>        -0.1468 
       5 C5         1.3519    1.4719    3.3369 C.ar      1 <0>        -0.0895 
       6 C6         1.5233    0.7148    4.5019 C.ar      1 <0>        -0.0299 
       7 C7         2.8292    0.7188    5.1984 C.2       1 <0>         0.2272 
       8 N1         3.5742    1.8028    5.3092 N.2       1 <0>        -0.2636 
       9 N2         4.7373    1.3871    6.0344 N.2       1 <0>        -0.2879 
      10 C8         4.5629    0.1017    6.2786 C.2       1 <0>         0.1630 
      11 N3         3.3834   -0.3891    5.7835 N.pl3     1 <0>        -0.4552 
      12 C9         2.8337   -1.7503    5.8584 C.3       1 <0>         0.0974 
      13 C10        2.2174   -1.9765    7.2382 C.3       1 <0>         0.0332 
      14 N4         1.6533   -3.3322    7.3057 N.3       1 <0>        -0.5315 
      15 C11        2.6104   -4.4666    7.1004 C.3       1 <0>         0.0093 
      16 C12        1.9187   -5.8383    7.2086 C.3       1 <0>         0.0640 
      17 O1         1.2503   -5.9450    8.4682 O.3       1 <0>        -0.3828 
      18 C13        0.2589   -4.9281    8.6356 C.3       1 <0>         0.0640 
      19 C14        0.9107   -3.5358    8.5579 C.3       1 <0>         0.0177 
      20 S1         5.7052   -0.9312    7.1509 S.3       1 <0>         0.0123 
      21 C15        7.1489    0.0549    7.6567 C.3       1 <0>        -0.0946 
      22 C16        7.8395    0.6185    6.4158 C.3       1 <0>         0.1064 
      23 C17        8.4307   -0.5095    5.5498 C.3       1 <0>        -0.1441 
      24 C18        9.2134    0.0912    4.3674 C.3       1 <0>        -0.1224 
      25 C19       10.2801    1.0641    4.9031 C.3       1 <0>        -0.1591 
      26 C20        9.6189    2.1294    5.7975 C.3       1 <0>         0.0610 
      27 O2         8.9058    1.5181    6.8770 O.3       1 <0>        -0.3733 
      28 F1        -2.1073    0.6393    2.4982 F         1 <0>        -0.1330 
      29 H1         0.5904   -0.6137    5.9166 H         1 <0>         0.1477 
      30 H2        -1.5883   -0.6516    4.7147 H         1 <0>         0.1461 
      31 H3        -0.0172    2.0314    1.7655 H         1 <0>         0.1443 
      32 H4         2.1664    2.0727    2.9601 H         1 <0>         0.1448 
      33 H5         3.6312   -2.4723    5.6954 H         1 <0>         0.1036 
      34 H6         2.0697   -1.8762    5.0943 H         1 <0>         0.1173 
      35 H7         1.4289   -1.2460    7.4067 H         1 <0>         0.0884 
      36 H8         2.9855   -1.8643    8.0006 H         1 <0>         0.0565 
      37 H9         3.4222   -4.4118    7.8227 H         1 <0>         0.0519 
      38 H10        3.0482   -4.4574    6.1044 H         1 <0>         0.0874 
      39 H11        1.2043   -5.9772    6.3998 H         1 <0>         0.1012 
      40 H12        2.6431   -6.6486    7.1600 H         1 <0>         0.0619 
      41 H13       -0.5070   -5.0197    7.8683 H         1 <0>         0.1015 
      42 H14       -0.2129   -5.0824    9.6037 H         1 <0>         0.0623 
      43 H15        1.5930   -3.4368    9.3996 H         1 <0>         0.0895 
      44 H16        0.1246   -2.7921    8.6699 H         1 <0>         0.0491 
      45 H17        7.8449   -0.5771    8.2044 H         1 <0>         0.1064 
      46 H18        6.8226    0.8737    8.2944 H         1 <0>         0.1120 
      47 H19        7.1111    1.1867    5.8411 H         1 <0>         0.0703 
      48 H20        9.1154   -1.0930    6.1617 H         1 <0>         0.0780 
      49 H21        7.6467   -1.1730    5.1907 H         1 <0>         0.0792 
      50 H22        8.5237    0.6418    3.7310 H         1 <0>         0.0726 
      51 H23        9.6713   -0.6928    3.7681 H         1 <0>         0.0656 
      52 H24       10.9912    0.5032    5.5061 H         1 <0>         0.0734 
      53 H25       10.8239    1.5280    4.0829 H         1 <0>         0.0757 
      54 H26        8.9449    2.7519    5.2128 H         1 <0>         0.0972 
      55 H27       10.3774    2.7767    6.2329 H         1 <0>         0.0518 
@<TRIPOS>BOND
       1        1        6 ar       
       2        1        2 ar       
       3        1       29 1        
       4        2        3 ar       
       5        2       30 1        
       6        3        4 ar       
       7        3       28 1        
       8        4        5 ar       
       9        4       31 1        
      10        5        6 ar       
      11        5       32 1        
      12        6        7 1        
      13        7       11 1        
      14        7        8 2        
      15        8        9 1        
      16        9       10 2        
      17       10       11 1        
      18       10       20 1        
      19       11       12 1        
      20       12       13 1        
      21       12       33 1        
      22       12       34 1        
      23       13       14 1        
      24       13       35 1        
      25       13       36 1        
      26       14       19 1        
      27       14       15 1        
      28       15       16 1        
      29       15       37 1        
      30       15       38 1        
      31       16       17 1        
      32       16       39 1        
      33       16       40 1        
      34       17       18 1        
      35       18       19 1        
      36       18       41 1        
      37       18       42 1        
      38       19       43 1        
      39       19       44 1        
      40       20       21 1        
      41       21       22 1        
      42       21       45 1        
      43       21       46 1        
      44       22       27 1        
      45       22       23 1        
      46       22       47 1        
      47       23       24 1        
      48       23       48 1        
      49       23       49 1        
      50       24       25 1        
      51       24       50 1        
      52       24       51 1        
      53       25       26 1        
      54       25       52 1        
      55       25       53 1        
      56       26       27 1        
      57       26       54 1        
      58       26       55 1        

