#        1GCZ_R01_S0001_C0000_L00020_S0001_C0002_G0010_E0001.mol2
#        Tue Jun  6 14:20:18 2017
#        Descriptor:     30    13     3    10    10    13
#        Energy - RMSD - RMSD MassCentre:     -63.6970    999.9999    999.9999
#        Receptor:       1  Surface Point:     1  Conformer:     0
#        Ligand:        20  Surface Point:     1  Conformer:     2
#        BUDE Formal Charge: 0
#        ATOM Count: 55
#        Heavy ATOM Count: 28
@<TRIPOS>MOLECULE
ZINC61153122_1GCZ_R01_S0001_C0000_L00020_S0001_C0002_G0010_E0001
 55 58 0 0 0
SMALL
USER_CHARGES
@<TRIPOS>ATOM
       1 C1         4.9898    1.1824    7.1920 C.ar      1 <0>        -0.0442 
       2 C2         6.2471    1.2991    7.7966 C.ar      1 <0>        -0.1492 
       3 C3         7.3762    0.7544    7.1736 C.ar      1 <0>         0.1157 
       4 C4         7.2461    0.0733    5.9601 C.ar      1 <0>        -0.1468 
       5 C5         5.9904   -0.0416    5.3522 C.ar      1 <0>        -0.0895 
       6 C6         4.8644    0.5219    5.9641 C.ar      1 <0>        -0.0299 
       7 C7         3.5408    0.4197    5.3097 C.2       1 <0>         0.2272 
       8 N1         3.1483   -0.6609    4.6610 N.2       1 <0>        -0.2636 
       9 N2         1.8339   -0.3548    4.1813 N.2       1 <0>        -0.2879 
      10 C8         1.5825    0.8734    4.5940 C.2       1 <0>         0.1630 
      11 N3         2.6106    1.4254    5.3119 N.pl3     1 <0>        -0.4552 
      12 C9         2.7056    2.7520    5.9380 C.3       1 <0>         0.0974 
      13 C10        1.9359    2.7495    7.2580 C.3       1 <0>         0.0332 
      14 N4         2.0460    4.0716    7.8909 N.3       1 <0>        -0.5315 
      15 C11        1.5082    5.2334    7.1125 C.3       1 <0>         0.0093 
      16 C12        1.6587    6.5636    7.8739 C.3       1 <0>         0.0640 
      17 O1         1.0304    6.4617    9.1544 O.3       1 <0>        -0.3828 
      18 C13        1.6041    5.4216    9.9505 C.3       1 <0>         0.0640 
      19 C14        1.4552    4.0658    9.2370 C.3       1 <0>         0.0177 
      20 S1         0.0865    1.7652    4.2788 S.3       1 <0>         0.0123 
      21 C15       -1.0444    0.7252    3.3031 C.3       1 <0>        -0.0946 
      22 C16       -0.3877    0.3732    1.9691 C.3       1 <0>         0.1064 
      23 C17       -0.1814    1.6304    1.1039 C.3       1 <0>        -0.1441 
      24 C18        0.3790    1.2333   -0.2745 C.3       1 <0>        -0.1224 
      25 C19       -0.5560    0.1979   -0.9265 C.3       1 <0>        -0.1591 
      26 C20       -0.7518   -1.0026    0.0182 C.3       1 <0>         0.0610 
      27 O2        -1.2719   -0.5781    1.2817 O.3       1 <0>        -0.3733 
      28 F1         8.5900    0.8804    7.7509 F         1 <0>        -0.1330 
      29 H1         4.1167    1.5989    7.6721 H         1 <0>         0.1477 
      30 H2         6.3529    1.8067    8.7439 H         1 <0>         0.1461 
      31 H3         8.1204   -0.3568    5.4944 H         1 <0>         0.1443 
      32 H4         5.8876   -0.5668    4.4141 H         1 <0>         0.1448 
      33 H5         2.2787    3.4983    5.2714 H         1 <0>         0.1036 
      34 H6         3.7501    2.9906    6.1271 H         1 <0>         0.1173 
      35 H7         2.3543    1.9938    7.9196 H         1 <0>         0.0884 
      36 H8         0.8888    2.5247    7.0660 H         1 <0>         0.0565 
      37 H9         0.4604    5.0721    6.8678 H         1 <0>         0.0519 
      38 H10        2.0490    5.3872    6.1810 H         1 <0>         0.0874 
      39 H11        2.7081    6.8226    7.9981 H         1 <0>         0.1012 
      40 H12        1.1722    7.3782    7.3415 H         1 <0>         0.0619 
      41 H13        2.6564    5.6269   10.1358 H         1 <0>         0.1015 
      42 H14        1.0877    5.4151   10.9081 H         1 <0>         0.0623 
      43 H15        0.3934    3.8407    9.1617 H         1 <0>         0.0895 
      44 H16        1.9190    3.3063    9.8627 H         1 <0>         0.0491 
      45 H17       -1.9692    1.2685    3.1206 H         1 <0>         0.1064 
      46 H18       -1.2619   -0.1879    3.8531 H         1 <0>         0.1120 
      47 H19        0.5699   -0.1033    2.1686 H         1 <0>         0.0703 
      48 H20       -1.1449    2.1156    0.9629 H         1 <0>         0.0780 
      49 H21        0.4845    2.3350    1.5979 H         1 <0>         0.0792 
      50 H22        1.3611    0.7845   -0.1402 H         1 <0>         0.0726 
      51 H23        0.4928    2.1072   -0.9124 H         1 <0>         0.0656 
      52 H24       -1.5251    0.6624   -1.0963 H         1 <0>         0.0734 
      53 H25       -0.1620   -0.1241   -1.8881 H         1 <0>         0.0757 
      54 H26        0.1885   -1.5305    0.1623 H         1 <0>         0.0972 
      55 H27       -1.4656   -1.7037   -0.4094 H         1 <0>         0.0518 
@<TRIPOS>BOND
       1        1        6 ar       
       2        1        2 ar       
       3        1       29 1        
       4        2        3 ar       
       5        2       30 1        
       6        3        4 ar       
       7        3       28 1        
       8        4        5 ar       
       9        4       31 1        
      10        5        6 ar       
      11        5       32 1        
      12        6        7 1        
      13        7       11 1        
      14        7        8 2        
      15        8        9 1        
      16        9       10 2        
      17       10       11 1        
      18       10       20 1        
      19       11       12 1        
      20       12       13 1        
      21       12       33 1        
      22       12       34 1        
      23       13       14 1        
      24       13       35 1        
      25       13       36 1        
      26       14       19 1        
      27       14       15 1        
      28       15       16 1        
      29       15       37 1        
      30       15       38 1        
      31       16       17 1        
      32       16       39 1        
      33       16       40 1        
      34       17       18 1        
      35       18       19 1        
      36       18       41 1        
      37       18       42 1        
      38       19       43 1        
      39       19       44 1        
      40       20       21 1        
      41       21       22 1        
      42       21       45 1        
      43       21       46 1        
      44       22       27 1        
      45       22       23 1        
      46       22       47 1        
      47       23       24 1        
      48       23       48 1        
      49       23       49 1        
      50       24       25 1        
      51       24       50 1        
      52       24       51 1        
      53       25       26 1        
      54       25       52 1        
      55       25       53 1        
      56       26       27 1        
      57       26       54 1        
      58       26       55 1        

