#        1GCZ_R01_S0001_C0000_L00003_S0001_C0041_G0010_E0001.mol2
#        Tue Jun  6 09:55:11 2017
#        Descriptor:     23    12    19    15     5    14
#        Energy - RMSD - RMSD MassCentre:     -53.1361    999.9999    999.9999
#        Receptor:       1  Surface Point:     1  Conformer:     0
#        Ligand:         3  Surface Point:     1  Conformer:    41
#        BUDE Formal Charge: 0
#        ATOM Count: 58
#        Heavy ATOM Count: 30
@<TRIPOS>MOLECULE
ZINC61580633_1GCZ_R01_S0001_C0000_L00003_S0001_C0041_G0010_E0001
 58 59 0 0 0
SMALL
USER_CHARGES
@<TRIPOS>ATOM
       1 C1        10.5534   -3.3081    7.3523 C.3       1 <0>        -0.1532 
       2 C2         9.4108   -3.3941    8.3601 C.3       1 <0>        -0.1224 
       3 C3         9.1382   -2.0067    8.9393 C.3       1 <0>        -0.1198 
       4 C4         7.9942   -2.0929    9.9485 C.3       1 <0>         0.0610 
       5 O1         6.8007   -2.5097    9.2802 O.3       1 <0>        -0.3878 
       6 C5         6.4095   -1.5878    8.2594 C.3       1 <0>         0.0487 
       7 C6         5.1327   -2.0874    7.5851 C.3       1 <0>         0.1244 
       8 N1         4.7307   -1.1397    6.5359 N.am      1 <0>        -0.7216 
       9 C7         3.6392   -1.3729    5.8125 C.2       1 <0>         0.5161 
      10 O2         3.3017   -0.5808    4.9342 O.2       1 <0>        -0.5151 
      11 C8         2.8139   -2.6110    6.0696 C.3       1 <0>         0.0490 
      12 O3         3.5437   -3.7657    5.6467 O.3       1 <0>        -0.3194 
      13 C9         2.9612   -4.9739    5.7992 C.2       1 <0>         0.5417 
      14 O4         1.8452   -5.0569    6.2852 O.2       1 <0>        -0.5337 
      15 C10        3.6767   -6.1984    5.3767 C.2       1 <0>        -0.2559 
      16 C11        3.1377   -7.5703    5.5105 C.2       1 <0>        -0.0791 
      17 C12        3.9894   -8.4971    5.0657 C.2       1 <0>        -0.2585 
      18 S1         5.4949   -7.8007    4.4486 S.3       1 <0>         0.3028 
      19 C13        4.9029   -6.1785    4.8365 C.2       1 <0>         0.0893 
      20 N2         5.5918   -5.0118    4.6335 N.am      1 <0>        -0.6099 
      21 C14        6.8070   -5.0414    4.0939 C.2       1 <0>         0.5551 
      22 O5         7.3127   -6.1168    3.7769 O.2       1 <0>        -0.4939 
      23 C15        7.5498   -3.7802    3.8752 C.ar      1 <0>        -0.1466 
      24 C16        8.8273   -3.8577    3.3076 C.ar      1 <0>        -0.0772 
      25 C17        9.6079   -2.7072    3.1441 C.ar      1 <0>        -0.1241 
      26 C18        9.1290   -1.4579    3.5551 C.ar      1 <0>        -0.0446 
      27 C19        7.8318   -1.3696    4.0740 C.ar      1 <0>        -0.1261 
      28 C20        7.0432   -2.5185    4.2089 C.ar      1 <0>        -0.0460 
      29 C21       10.0105   -0.2383    3.4275 C.3       1 <0>        -0.0928 
      30 C22       10.8204   -0.0609    4.7084 C.3       1 <0>        -0.1485 
      31 H1        11.4517   -2.9526    7.8529 H         1 <0>         0.0567 
      32 H2        10.2833   -2.6169    6.5568 H         1 <0>         0.0554 
      33 H3        10.7386   -4.2935    6.9300 H         1 <0>         0.0557 
      34 H4         8.5153   -3.7615    7.8633 H         1 <0>         0.0632 
      35 H5         9.6856   -4.0743    9.1636 H         1 <0>         0.0635 
      36 H6        10.0329   -1.6386    9.4370 H         1 <0>         0.0711 
      37 H7         8.8627   -1.3256    8.1368 H         1 <0>         0.0704 
      38 H8         8.2463   -2.8143   10.7229 H         1 <0>         0.0498 
      39 H9         7.8338   -1.1159   10.4000 H         1 <0>         0.0505 
      40 H10        7.2025   -1.5077    7.5189 H         1 <0>         0.0584 
      41 H11        6.2264   -0.6112    8.7026 H         1 <0>         0.0702 
      42 H12        4.3387   -2.1671    8.3245 H         1 <0>         0.0872 
      43 H13        5.3147   -3.0637    7.1407 H         1 <0>         0.0805 
      44 H14        5.2827   -0.3116    6.3638 H         1 <0>         0.4058 
      45 H15        2.5973   -2.6889    7.1330 H         1 <0>         0.1008 
      46 H16        1.8814   -2.5480    5.5127 H         1 <0>         0.0999 
      47 H17        2.1573   -7.7744    5.9147 H         1 <0>         0.1557 
      48 H18        3.7630   -9.5530    5.0758 H         1 <0>         0.1929 
      49 H19        5.1765   -4.1287    4.8938 H         1 <0>         0.4317 
      50 H20        9.2187   -4.8148    2.9958 H         1 <0>         0.1287 
      51 H21       10.5894   -2.7785    2.6992 H         1 <0>         0.1326 
      52 H22        7.4471   -0.4032    4.3647 H         1 <0>         0.1342 
      53 H23        6.0308   -2.3810    4.5590 H         1 <0>         0.1410 
      54 H24        9.3906    0.6408    3.2647 H         1 <0>         0.0777 
      55 H25       10.6866   -0.3671    2.5848 H         1 <0>         0.0771 
      56 H26       11.4491   -0.9352    4.8634 H         1 <0>         0.0623 
      57 H27       10.1431    0.0536    5.5522 H         1 <0>         0.0572 
      58 H28       11.4456    0.8253    4.6216 H         1 <0>         0.0578 
@<TRIPOS>BOND
       1        1        2 1        
       2        1       31 1        
       3        1       32 1        
       4        1       33 1        
       5        2        3 1        
       6        2       34 1        
       7        2       35 1        
       8        3        4 1        
       9        3       36 1        
      10        3       37 1        
      11        4        5 1        
      12        4       38 1        
      13        4       39 1        
      14        5        6 1        
      15        6        7 1        
      16        6       40 1        
      17        6       41 1        
      18        7        8 1        
      19        7       42 1        
      20        7       43 1        
      21        8        9 am       
      22        8       44 1        
      23        9       10 2        
      24        9       11 1        
      25       11       12 1        
      26       11       45 1        
      27       11       46 1        
      28       12       13 1        
      29       13       14 2        
      30       13       15 1        
      31       15       19 2        
      32       15       16 1        
      33       16       17 2        
      34       16       47 1        
      35       17       18 1        
      36       17       48 1        
      37       18       19 1        
      38       19       20 1        
      39       20       21 am       
      40       20       49 1        
      41       21       22 2        
      42       21       23 1        
      43       23       28 ar       
      44       23       24 ar       
      45       24       25 ar       
      46       24       50 1        
      47       25       26 ar       
      48       25       51 1        
      49       26       27 ar       
      50       26       29 1        
      51       27       28 ar       
      52       27       52 1        
      53       28       53 1        
      54       29       30 1        
      55       29       54 1        
      56       29       55 1        
      57       30       56 1        
      58       30       57 1        
      59       30       58 1        

