#        1GCZ_R01_S0001_C0000_L00020_S0001_C0003_G0010_E0001.mol2
#        Tue Jun  6 10:01:53 2017
#        Descriptor:     30    15     9     8     9    13
#        Energy - RMSD - RMSD MassCentre:     -68.3877    999.9999    999.9999
#        Receptor:       1  Surface Point:     1  Conformer:     0
#        Ligand:        20  Surface Point:     1  Conformer:     3
#        BUDE Formal Charge: 0
#        ATOM Count: 55
#        Heavy ATOM Count: 28
@<TRIPOS>MOLECULE
ZINC61153122_1GCZ_R01_S0001_C0000_L00020_S0001_C0003_G0010_E0001
 55 58 0 0 0
SMALL
USER_CHARGES
@<TRIPOS>ATOM
       1 C1         1.8457    2.9413    8.0942 C.ar      1 <0>        -0.0442 
       2 C2         2.3733    3.8124    9.0547 C.ar      1 <0>        -0.1492 
       3 C3         3.4096    4.6885    8.7105 C.ar      1 <0>         0.1157 
       4 C4         3.9344    4.6776    7.4152 C.ar      1 <0>        -0.1468 
       5 C5         3.4060    3.8097    6.4524 C.ar      1 <0>        -0.0895 
       6 C6         2.3550    2.9488    6.7902 C.ar      1 <0>        -0.0299 
       7 C7         1.7818    2.0475    5.7657 C.2       1 <0>         0.2272 
       8 N1         2.5213    1.4422    4.8552 N.2       1 <0>        -0.2636 
       9 N2         1.5990    0.6805    4.0674 N.2       1 <0>        -0.2879 
      10 C8         0.4096    0.9118    4.5908 C.2       1 <0>         0.1630 
      11 N3         0.4457    1.7623    5.6643 N.pl3     1 <0>        -0.4552 
      12 C9        -0.6557    2.2487    6.5077 C.3       1 <0>         0.0974 
      13 C10       -1.0384    1.1697    7.5196 C.3       1 <0>         0.0332 
      14 N4        -1.6005    0.0113    6.8104 N.3       1 <0>        -0.5315 
      15 C11       -0.8336   -1.2250    7.0885 C.3       1 <0>         0.0093 
      16 C12       -1.0683   -1.7521    8.5162 C.3       1 <0>         0.0640 
      17 O1        -2.4677   -1.9479    8.7356 O.3       1 <0>        -0.3828 
      18 C13       -3.2092   -0.7357    8.5751 C.3       1 <0>         0.0640 
      19 C14       -3.0171   -0.1827    7.1514 C.3       1 <0>         0.0177 
      20 S1        -1.1107    0.2212    4.0040 S.3       1 <0>         0.0123 
      21 C15       -0.7754   -0.8540    2.5743 C.3       1 <0>        -0.0946 
      22 C16       -0.1422   -0.0288    1.4550 C.3       1 <0>         0.1064 
      23 C17       -1.1279    1.0257    0.9182 C.3       1 <0>        -0.1441 
      24 C18       -0.5038    1.7666   -0.2790 C.3       1 <0>        -0.1224 
      25 C19       -0.0746    0.7422   -1.3457 C.3       1 <0>        -0.1591 
      26 C20        0.8672   -0.3043   -0.7212 C.3       1 <0>         0.0610 
      27 O2         0.2395   -0.9602    0.3846 O.3       1 <0>        -0.3733 
      28 F1         3.9073    5.5381    9.6342 F         1 <0>        -0.1330 
      29 H1         1.0485    2.2622    8.3580 H         1 <0>         0.1477 
      30 H2         1.9866    3.8131   10.0631 H         1 <0>         0.1461 
      31 H3         4.7440    5.3464    7.1630 H         1 <0>         0.1443 
      32 H4         3.8094    3.8001    5.4506 H         1 <0>         0.1448 
      33 H5        -1.5155    2.4800    5.8824 H         1 <0>         0.1036 
      34 H6        -0.3401    3.1462    7.0355 H         1 <0>         0.1173 
      35 H7        -1.7791    1.5674    8.2102 H         1 <0>         0.0884 
      36 H8        -0.1536    0.8624    8.0732 H         1 <0>         0.0565 
      37 H9         0.2295   -1.0506    6.9364 H         1 <0>         0.0519 
      38 H10       -1.1337   -2.0452    6.4399 H         1 <0>         0.0874 
      39 H11       -0.5360   -2.6873    8.6767 H         1 <0>         0.1012 
      40 H12       -0.7236   -1.0374    9.2606 H         1 <0>         0.0619 
      41 H13       -4.2661   -0.9139    8.7616 H         1 <0>         0.1015 
      42 H14       -2.8498   -0.0274    9.3184 H         1 <0>         0.0623 
      43 H15       -3.5351    0.7720    7.0891 H         1 <0>         0.0895 
      44 H16       -3.4938   -0.8725    6.4580 H         1 <0>         0.0491 
      45 H17       -1.7084   -1.2889    2.2218 H         1 <0>         0.1064 
      46 H18       -0.0934   -1.6482    2.8706 H         1 <0>         0.1120 
      47 H19        0.7492    0.4584    1.8447 H         1 <0>         0.0703 
      48 H20       -2.0298    0.5178    0.5832 H         1 <0>         0.0780 
      49 H21       -1.4051    1.7297    1.7001 H         1 <0>         0.0792 
      50 H22        0.3759    2.3090    0.0613 H         1 <0>         0.0726 
      51 H23       -1.2037    2.4880   -0.6953 H         1 <0>         0.0656 
      52 H24       -0.9614    0.2299   -1.7129 H         1 <0>         0.0734 
      53 H25        0.4013    1.2405   -2.1877 H         1 <0>         0.0757 
      54 H26        1.7945    0.1637   -0.3976 H         1 <0>         0.0972 
      55 H27        1.1174   -1.0683   -1.4544 H         1 <0>         0.0518 
@<TRIPOS>BOND
       1        1        6 ar       
       2        1        2 ar       
       3        1       29 1        
       4        2        3 ar       
       5        2       30 1        
       6        3        4 ar       
       7        3       28 1        
       8        4        5 ar       
       9        4       31 1        
      10        5        6 ar       
      11        5       32 1        
      12        6        7 1        
      13        7       11 1        
      14        7        8 2        
      15        8        9 1        
      16        9       10 2        
      17       10       11 1        
      18       10       20 1        
      19       11       12 1        
      20       12       13 1        
      21       12       33 1        
      22       12       34 1        
      23       13       14 1        
      24       13       35 1        
      25       13       36 1        
      26       14       19 1        
      27       14       15 1        
      28       15       16 1        
      29       15       37 1        
      30       15       38 1        
      31       16       17 1        
      32       16       39 1        
      33       16       40 1        
      34       17       18 1        
      35       18       19 1        
      36       18       41 1        
      37       18       42 1        
      38       19       43 1        
      39       19       44 1        
      40       20       21 1        
      41       21       22 1        
      42       21       45 1        
      43       21       46 1        
      44       22       27 1        
      45       22       23 1        
      46       22       47 1        
      47       23       24 1        
      48       23       48 1        
      49       23       49 1        
      50       24       25 1        
      51       24       50 1        
      52       24       51 1        
      53       25       26 1        
      54       25       52 1        
      55       25       53 1        
      56       26       27 1        
      57       26       54 1        
      58       26       55 1        

