#        1GCZ_R01_S0001_C0000_L00020_S0001_C0003_G0010_E0001.mol2
#        Tue Jun  6 14:20:20 2017
#        Descriptor:     15     8    16    12     9    13
#        Energy - RMSD - RMSD MassCentre:     -60.4879    999.9999    999.9999
#        Receptor:       1  Surface Point:     1  Conformer:     0
#        Ligand:        20  Surface Point:     1  Conformer:     3
#        BUDE Formal Charge: 0
#        ATOM Count: 55
#        Heavy ATOM Count: 28
@<TRIPOS>MOLECULE
ZINC61153122_1GCZ_R01_S0001_C0000_L00020_S0001_C0003_G0010_E0001
 55 58 0 0 0
SMALL
USER_CHARGES
@<TRIPOS>ATOM
       1 C1         7.8789   -0.1706    5.5771 C.ar      1 <0>        -0.0442 
       2 C2         9.2440   -0.4793    5.5435 C.ar      1 <0>        -0.1492 
       3 C3         9.7045   -1.5274    4.7379 C.ar      1 <0>         0.1157 
       4 C4         8.7999   -2.2816    3.9854 C.ar      1 <0>        -0.1468 
       5 C5         7.4349   -1.9725    4.0150 C.ar      1 <0>        -0.0895 
       6 C6         6.9767   -0.9104    4.8036 C.ar      1 <0>        -0.0299 
       7 C7         5.5364   -0.5698    4.8169 C.2       1 <0>         0.2272 
       8 N1         4.5872   -1.4865    4.7848 N.2       1 <0>        -0.2636 
       9 N2         3.3565   -0.7542    4.8066 N.2       1 <0>        -0.2879 
      10 C8         3.7016    0.5191    4.8494 C.2       1 <0>         0.1630 
      11 N3         5.0579    0.7132    4.8595 N.pl3     1 <0>        -0.4552 
      12 C9         5.8211    1.9684    4.9107 C.3       1 <0>         0.0974 
      13 C10        5.8500    2.4898    6.3466 C.3       1 <0>         0.0332 
      14 N4         4.4900    2.8678    6.7571 N.3       1 <0>        -0.5315 
      15 C11        4.0534    2.1192    7.9583 C.3       1 <0>         0.0093 
      16 C12        4.7694    2.5926    9.2368 C.3       1 <0>         0.0640 
      17 O1         4.5804    4.0001    9.4042 O.3       1 <0>        -0.3828 
      18 C13        5.0955    4.7445    8.2972 C.3       1 <0>         0.0640 
      19 C14        4.3917    4.3148    6.9974 C.3       1 <0>         0.0177 
      20 S1         2.5688    1.8784    4.8891 S.3       1 <0>         0.0123 
      21 C15        0.8625    1.2456    4.8642 C.3       1 <0>        -0.0946 
      22 C16        0.6345    0.4488    3.5805 C.3       1 <0>         0.1064 
      23 C17        0.7238    1.3578    2.3406 C.3       1 <0>        -0.1441 
      24 C18        0.3821    0.5525    1.0732 C.3       1 <0>        -0.1224 
      25 C19       -1.0006   -0.1039    1.2429 C.3       1 <0>        -0.1591 
      26 C20       -1.0255   -0.9535    2.5273 C.3       1 <0>         0.0610 
      27 O2        -0.7006   -0.1581    3.6715 O.3       1 <0>        -0.3733 
      28 F1        11.0230   -1.8144    4.6955 F         1 <0>        -0.1330 
      29 H1         7.5206    0.6355    6.2003 H         1 <0>         0.1477 
      30 H2         9.9469    0.0861    6.1373 H         1 <0>         0.1461 
      31 H3         9.1626   -3.0980    3.3786 H         1 <0>         0.1443 
      32 H4         6.7342   -2.5534    3.4337 H         1 <0>         0.1448 
      33 H5         5.3475    2.7066    4.2669 H         1 <0>         0.1036 
      34 H6         6.8383    1.7893    4.5688 H         1 <0>         0.1173 
      35 H7         6.5015    3.3594    6.4031 H         1 <0>         0.0884 
      36 H8         6.2254    1.7111    7.0072 H         1 <0>         0.0565 
      37 H9         4.2242    1.0536    7.8203 H         1 <0>         0.0519 
      38 H10        2.9954    2.2638    8.1663 H         1 <0>         0.0874 
      39 H11        4.3932    2.0642   10.1103 H         1 <0>         0.1012 
      40 H12        5.8415    2.4179    9.1744 H         1 <0>         0.0619 
      41 H13        4.9496    5.8102    8.4601 H         1 <0>         0.1015 
      42 H14        6.1652    4.5549    8.2403 H         1 <0>         0.0623 
      43 H15        4.8572    4.8480    6.1711 H         1 <0>         0.0895 
      44 H16        3.3521    4.6294    7.0606 H         1 <0>         0.0491 
      45 H17        0.1661    2.0807    4.9019 H         1 <0>         0.1064 
      46 H18        0.7031    0.6003    5.7255 H         1 <0>         0.1120 
      47 H19        1.3850   -0.3367    3.5216 H         1 <0>         0.0703 
      48 H20        0.0001    2.1629    2.4487 H         1 <0>         0.0780 
      49 H21        1.7142    1.8004    2.2559 H         1 <0>         0.0792 
      50 H22        1.1278   -0.2286    0.9396 H         1 <0>         0.0726 
      51 H23        0.4016    1.1905    0.1922 H         1 <0>         0.0656 
      52 H24       -1.7490    0.6803    1.3357 H         1 <0>         0.0734 
      53 H25       -1.2490   -0.7075    0.3725 H         1 <0>         0.0757 
      54 H26       -0.3313   -1.7871    2.4455 H         1 <0>         0.0972 
      55 H27       -2.0209   -1.3628    2.6867 H         1 <0>         0.0518 
@<TRIPOS>BOND
       1        1        6 ar       
       2        1        2 ar       
       3        1       29 1        
       4        2        3 ar       
       5        2       30 1        
       6        3        4 ar       
       7        3       28 1        
       8        4        5 ar       
       9        4       31 1        
      10        5        6 ar       
      11        5       32 1        
      12        6        7 1        
      13        7       11 1        
      14        7        8 2        
      15        8        9 1        
      16        9       10 2        
      17       10       11 1        
      18       10       20 1        
      19       11       12 1        
      20       12       13 1        
      21       12       33 1        
      22       12       34 1        
      23       13       14 1        
      24       13       35 1        
      25       13       36 1        
      26       14       19 1        
      27       14       15 1        
      28       15       16 1        
      29       15       37 1        
      30       15       38 1        
      31       16       17 1        
      32       16       39 1        
      33       16       40 1        
      34       17       18 1        
      35       18       19 1        
      36       18       41 1        
      37       18       42 1        
      38       19       43 1        
      39       19       44 1        
      40       20       21 1        
      41       21       22 1        
      42       21       45 1        
      43       21       46 1        
      44       22       27 1        
      45       22       23 1        
      46       22       47 1        
      47       23       24 1        
      48       23       48 1        
      49       23       49 1        
      50       24       25 1        
      51       24       50 1        
      52       24       51 1        
      53       25       26 1        
      54       25       52 1        
      55       25       53 1        
      56       26       27 1        
      57       26       54 1        
      58       26       55 1        

