#        1GCZ_R01_S0001_C0000_L00020_S0001_C0004_G0010_E0001.mol2
#        Tue Jun  6 10:01:54 2017
#        Descriptor:      9     9     7    13     7    14
#        Energy - RMSD - RMSD MassCentre:     -53.3666    999.9999    999.9999
#        Receptor:       1  Surface Point:     1  Conformer:     0
#        Ligand:        20  Surface Point:     1  Conformer:     4
#        BUDE Formal Charge: 0
#        ATOM Count: 55
#        Heavy ATOM Count: 28
@<TRIPOS>MOLECULE
ZINC61153122_1GCZ_R01_S0001_C0000_L00020_S0001_C0004_G0010_E0001
 55 58 0 0 0
SMALL
USER_CHARGES
@<TRIPOS>ATOM
       1 C1         0.9783   -0.4257    5.4902 C.ar      1 <0>        -0.0442 
       2 C2        -0.3317   -0.8362    5.2160 C.ar      1 <0>        -0.1492 
       3 C3        -1.1050   -0.1323    4.2852 C.ar      1 <0>         0.1157 
       4 C4        -0.5789    0.9943    3.6470 C.ar      1 <0>        -0.1468 
       5 C5         0.7320    1.4045    3.9172 C.ar      1 <0>        -0.0895 
       6 C6         1.5131    0.6880    4.8317 C.ar      1 <0>        -0.0299 
       7 C7         2.9065    1.1088    5.1000 C.2       1 <0>         0.2272 
       8 N1         3.2670    2.3768    5.1689 N.2       1 <0>        -0.2636 
       9 N2         4.6742    2.3536    5.4347 N.2       1 <0>        -0.2879 
      10 C8         5.0030    1.0767    5.4961 C.2       1 <0>         0.1630 
      11 N3         3.9418    0.2334    5.2963 N.pl3     1 <0>        -0.4552 
      12 C9         3.9040   -1.2361    5.2967 C.3       1 <0>         0.0974 
      13 C10        3.8919   -1.7458    6.7371 C.3       1 <0>         0.0332 
      14 N4         3.8370   -3.2147    6.7358 N.3       1 <0>        -0.5315 
      15 C11        2.6453   -3.8396    6.0768 C.3       1 <0>         0.0093 
      16 C12        2.6808   -5.3775    6.1479 C.3       1 <0>         0.0640 
      17 O1         2.7994   -5.7962    7.5100 O.3       1 <0>        -0.3828 
      18 C13        3.9883   -5.2910    8.1235 C.3       1 <0>         0.0640 
      19 C14        3.9849   -3.7520    8.0960 C.3       1 <0>         0.0177 
      20 S1         6.6340    0.4607    5.8008 S.3       1 <0>         0.0123 
      21 C15        7.7788    1.8590    6.0171 C.3       1 <0>        -0.0946 
      22 C16        9.1870    1.3272    6.2801 C.3       1 <0>         0.1064 
      23 C17        9.7323    0.5721    5.0537 C.3       1 <0>        -0.1441 
      24 C18       11.1038   -0.0454    5.3844 C.3       1 <0>        -0.1224 
      25 C19       10.9745   -0.9359    6.6341 C.3       1 <0>        -0.1591 
      26 C20       10.3774   -0.1244    7.7989 C.3       1 <0>         0.0610 
      27 O2         9.1070    0.4266    7.4383 O.3       1 <0>        -0.3733 
      28 F1        -2.3631   -0.5382    4.0113 F         1 <0>        -0.1330 
      29 H1         1.5759   -0.9650    6.2102 H         1 <0>         0.1477 
      30 H2        -0.7523   -1.6939    5.7196 H         1 <0>         0.1461 
      31 H3        -1.1881    1.5399    2.9417 H         1 <0>         0.1443 
      32 H4         1.1409    2.2742    3.4246 H         1 <0>         0.1448 
      33 H5         4.7829   -1.6210    4.7838 H         1 <0>         0.1036 
      34 H6         3.0072   -1.5766    4.7834 H         1 <0>         0.1173 
      35 H7         3.0201   -1.3499    7.2539 H         1 <0>         0.0884 
      36 H8         4.7959   -1.4165    7.2452 H         1 <0>         0.0565 
      37 H9         2.5804   -3.5259    5.0371 H         1 <0>         0.0519 
      38 H10        1.7146   -3.5632    6.5678 H         1 <0>         0.0874 
      39 H11        1.7835   -5.8069    5.7074 H         1 <0>         0.1012 
      40 H12        3.5410   -5.7757    5.6136 H         1 <0>         0.0619 
      41 H13        4.0589   -5.6411    9.1512 H         1 <0>         0.1015 
      42 H14        4.8386   -5.6873    7.5726 H         1 <0>         0.0623 
      43 H15        4.9263   -3.4064    8.5179 H         1 <0>         0.0895 
      44 H16        3.1785   -3.4081    8.7405 H         1 <0>         0.0491 
      45 H17        7.4555    2.4644    6.8614 H         1 <0>         0.1064 
      46 H18        7.7827    2.4666    5.1146 H         1 <0>         0.1120 
      47 H19        9.8359    2.1669    6.5197 H         1 <0>         0.0703 
      48 H20        9.0395   -0.2289    4.8040 H         1 <0>         0.0780 
      49 H21        9.8094    1.2346    4.1942 H         1 <0>         0.0792 
      50 H22       11.8098    0.7552    5.5949 H         1 <0>         0.0726 
      51 H23       11.4846   -0.6168    4.5404 H         1 <0>         0.0656 
      52 H24       10.2993   -1.7582    6.4073 H         1 <0>         0.0734 
      53 H25       11.9399   -1.3566    6.9079 H         1 <0>         0.0757 
      54 H26       11.0568    0.6721    8.0953 H         1 <0>         0.0972 
      55 H27       10.2207   -0.7675    8.6624 H         1 <0>         0.0518 
@<TRIPOS>BOND
       1        1        6 ar       
       2        1        2 ar       
       3        1       29 1        
       4        2        3 ar       
       5        2       30 1        
       6        3        4 ar       
       7        3       28 1        
       8        4        5 ar       
       9        4       31 1        
      10        5        6 ar       
      11        5       32 1        
      12        6        7 1        
      13        7       11 1        
      14        7        8 2        
      15        8        9 1        
      16        9       10 2        
      17       10       11 1        
      18       10       20 1        
      19       11       12 1        
      20       12       13 1        
      21       12       33 1        
      22       12       34 1        
      23       13       14 1        
      24       13       35 1        
      25       13       36 1        
      26       14       19 1        
      27       14       15 1        
      28       15       16 1        
      29       15       37 1        
      30       15       38 1        
      31       16       17 1        
      32       16       39 1        
      33       16       40 1        
      34       17       18 1        
      35       18       19 1        
      36       18       41 1        
      37       18       42 1        
      38       19       43 1        
      39       19       44 1        
      40       20       21 1        
      41       21       22 1        
      42       21       45 1        
      43       21       46 1        
      44       22       27 1        
      45       22       23 1        
      46       22       47 1        
      47       23       24 1        
      48       23       48 1        
      49       23       49 1        
      50       24       25 1        
      51       24       50 1        
      52       24       51 1        
      53       25       26 1        
      54       25       52 1        
      55       25       53 1        
      56       26       27 1        
      57       26       54 1        
      58       26       55 1        

