#        1GCZ_R01_S0001_C0000_L00020_S0001_C0004_G0010_E0001.mol2
#        Tue Jun  6 14:20:22 2017
#        Descriptor:      3    12     8    12     8    14
#        Energy - RMSD - RMSD MassCentre:     -55.3084    999.9999    999.9999
#        Receptor:       1  Surface Point:     1  Conformer:     0
#        Ligand:        20  Surface Point:     1  Conformer:     4
#        BUDE Formal Charge: 0
#        ATOM Count: 55
#        Heavy ATOM Count: 28
@<TRIPOS>MOLECULE
ZINC61153122_1GCZ_R01_S0001_C0000_L00020_S0001_C0004_G0010_E0001
 55 58 0 0 0
SMALL
USER_CHARGES
@<TRIPOS>ATOM
       1 C1         1.8288    3.3019    7.0710 C.ar      1 <0>        -0.0442 
       2 C2         0.6838    4.1069    7.0974 C.ar      1 <0>        -0.1492 
       3 C3         0.7826    5.4734    6.8094 C.ar      1 <0>         0.1157 
       4 C4         2.0270    6.0395    6.5191 C.ar      1 <0>        -0.1468 
       5 C5         3.1727    5.2356    6.4889 C.ar      1 <0>        -0.0895 
       6 C6         3.0710    3.8651    6.7554 C.ar      1 <0>        -0.0299 
       7 C7         4.2790    3.0117    6.7011 C.2       1 <0>         0.2272 
       8 N1         5.4589    3.4191    7.1306 N.2       1 <0>        -0.2636 
       9 N2         6.3440    2.3170    6.8996 N.2       1 <0>        -0.2879 
      10 C8         5.5996    1.3711    6.3581 C.2       1 <0>         0.1630 
      11 N3         4.2880    1.7355    6.2031 N.pl3     1 <0>        -0.4552 
      12 C9         3.1635    0.9651    5.6528 C.3       1 <0>         0.0974 
      13 C10        2.6491   -0.0121    6.7088 C.3       1 <0>         0.0332 
      14 N4         1.5141   -0.7698    6.1627 N.3       1 <0>        -0.5315 
      15 C11        0.3199    0.0280    5.7357 C.3       1 <0>         0.0093 
      16 C12       -0.8136   -0.8643    5.1968 C.3       1 <0>         0.0640 
      17 O1        -1.1672   -1.8426    6.1779 O.3       1 <0>        -0.3828 
      18 C13       -0.0605   -2.6809    6.5206 C.3       1 <0>         0.0640 
      19 C14        1.0912   -1.8313    7.0874 C.3       1 <0>         0.0177 
      20 S1         6.1850   -0.2238    5.8618 S.3       1 <0>         0.0123 
      21 C15        7.9654   -0.3527    6.2168 C.3       1 <0>        -0.0946 
      22 C16        8.4709   -1.7295    5.7883 C.3       1 <0>         0.1064 
      23 C17        8.3710   -1.9062    4.2617 C.3       1 <0>        -0.1441 
      24 C18        8.7824   -3.3379    3.8708 C.3       1 <0>        -0.1224 
      25 C19        7.9226   -4.3476    4.6535 C.3       1 <0>        -0.1591 
      26 C20        8.0359   -4.0747    6.1650 C.3       1 <0>         0.0610 
      27 O2         7.6438   -2.7333    6.4720 O.3       1 <0>        -0.3733 
      28 F1        -0.3248    6.2454    6.8211 F         1 <0>        -0.1330 
      29 H1         1.7558    2.2481    7.2959 H         1 <0>         0.1477 
      30 H2        -0.2784    3.6809    7.3401 H         1 <0>         0.1461 
      31 H3         2.0958    7.0974    6.3131 H         1 <0>         0.1443 
      32 H4         4.1352    5.6708    6.2640 H         1 <0>         0.1448 
      33 H5         3.4982    0.4103    4.7787 H         1 <0>         0.1036 
      34 H6         2.3635    1.6443    5.3660 H         1 <0>         0.1173 
      35 H7         2.3270    0.5418    7.5882 H         1 <0>         0.0884 
      36 H8         3.4460   -0.6998    6.9844 H         1 <0>         0.0565 
      37 H9         0.6022    0.7542    4.9763 H         1 <0>         0.0519 
      38 H10       -0.1281    0.5700    6.5659 H         1 <0>         0.0874 
      39 H11       -1.6869   -0.2687    4.9392 H         1 <0>         0.1012 
      40 H12       -0.4994   -1.4029    4.3051 H         1 <0>         0.0619 
      41 H13       -0.3652   -3.4247    7.2538 H         1 <0>         0.1015 
      42 H14        0.2502   -3.2036    5.6184 H         1 <0>         0.0623 
      43 H15        1.9324   -2.4932    7.2825 H         1 <0>         0.0895 
      44 H16        0.7622   -1.4131    8.0364 H         1 <0>         0.0491 
      45 H17        8.1324   -0.2202    7.2838 H         1 <0>         0.1064 
      46 H18        8.5010    0.4182    5.6667 H         1 <0>         0.1120 
      47 H19        9.5052   -1.8347    6.1088 H         1 <0>         0.0703 
      48 H20        7.3377   -1.7452    3.9613 H         1 <0>         0.0780 
      49 H21        8.9922   -1.1766    3.7463 H         1 <0>         0.0792 
      50 H22        9.8275   -3.4888    4.1328 H         1 <0>         0.0726 
      51 H23        8.6787   -3.4913    2.7986 H         1 <0>         0.0656 
      52 H24        6.8829   -4.2213    4.3592 H         1 <0>         0.0734 
      53 H25        8.2190   -5.3679    4.4193 H         1 <0>         0.0757 
      54 H26        9.0530   -4.2520    6.5084 H         1 <0>         0.0972 
      55 H27        7.3767   -4.7415    6.7169 H         1 <0>         0.0518 
@<TRIPOS>BOND
       1        1        6 ar       
       2        1        2 ar       
       3        1       29 1        
       4        2        3 ar       
       5        2       30 1        
       6        3        4 ar       
       7        3       28 1        
       8        4        5 ar       
       9        4       31 1        
      10        5        6 ar       
      11        5       32 1        
      12        6        7 1        
      13        7       11 1        
      14        7        8 2        
      15        8        9 1        
      16        9       10 2        
      17       10       11 1        
      18       10       20 1        
      19       11       12 1        
      20       12       13 1        
      21       12       33 1        
      22       12       34 1        
      23       13       14 1        
      24       13       35 1        
      25       13       36 1        
      26       14       19 1        
      27       14       15 1        
      28       15       16 1        
      29       15       37 1        
      30       15       38 1        
      31       16       17 1        
      32       16       39 1        
      33       16       40 1        
      34       17       18 1        
      35       18       19 1        
      36       18       41 1        
      37       18       42 1        
      38       19       43 1        
      39       19       44 1        
      40       20       21 1        
      41       21       22 1        
      42       21       45 1        
      43       21       46 1        
      44       22       27 1        
      45       22       23 1        
      46       22       47 1        
      47       23       24 1        
      48       23       48 1        
      49       23       49 1        
      50       24       25 1        
      51       24       50 1        
      52       24       51 1        
      53       25       26 1        
      54       25       52 1        
      55       25       53 1        
      56       26       27 1        
      57       26       54 1        
      58       26       55 1        

