#        1GCZ_R01_S0001_C0000_L00020_S0001_C0005_G0010_E0001.mol2
#        Tue Jun  6 10:01:55 2017
#        Descriptor:     14    15    12     8    10    15
#        Energy - RMSD - RMSD MassCentre:     -58.0522    999.9999    999.9999
#        Receptor:       1  Surface Point:     1  Conformer:     0
#        Ligand:        20  Surface Point:     1  Conformer:     5
#        BUDE Formal Charge: 0
#        ATOM Count: 55
#        Heavy ATOM Count: 28
@<TRIPOS>MOLECULE
ZINC61153122_1GCZ_R01_S0001_C0000_L00020_S0001_C0005_G0010_E0001
 55 58 0 0 0
SMALL
USER_CHARGES
@<TRIPOS>ATOM
       1 C1         0.1795   -0.1586    4.1836 C.ar      1 <0>        -0.0442 
       2 C2         0.3496   -0.5780    2.8589 C.ar      1 <0>        -0.1492 
       3 C3        -0.7338   -0.5532    1.9726 C.ar      1 <0>         0.1157 
       4 C4        -1.9910   -0.1330    2.4154 C.ar      1 <0>        -0.1468 
       5 C5        -2.1626    0.2899    3.7388 C.ar      1 <0>        -0.0895 
       6 C6        -1.0744    0.2860    4.6195 C.ar      1 <0>        -0.0299 
       7 C7        -1.2513    0.7546    6.0122 C.2       1 <0>         0.2272 
       8 N1        -2.3397    0.5033    6.7156 N.2       1 <0>        -0.2636 
       9 N2        -2.1175    1.1247    7.9868 N.2       1 <0>        -0.2879 
      10 C8        -0.9225    1.6794    7.9068 C.2       1 <0>         0.1630 
      11 N3        -0.3156    1.4874    6.6936 N.pl3     1 <0>        -0.4552 
      12 C9         1.0037    1.9380    6.2277 C.3       1 <0>         0.0974 
      13 C10        2.0851    1.0147    6.7871 C.3       1 <0>         0.0332 
      14 N4         3.4022    1.4566    6.3067 N.3       1 <0>        -0.5315 
      15 C11        4.5973    0.8389    6.9662 C.3       1 <0>         0.0093 
      16 C12        5.9212    1.3590    6.3759 C.3       1 <0>         0.0640 
      17 O1         5.9389    1.1425    4.9625 O.3       1 <0>        -0.3828 
      18 C13        4.8604    1.8130    4.3051 C.3       1 <0>         0.0640 
      19 C14        3.5123    1.3062    4.8487 C.3       1 <0>         0.0177 
      20 S1        -0.1366    2.5917    9.2041 S.3       1 <0>         0.0123 
      21 C15       -1.2303    2.6412   10.6580 C.3       1 <0>        -0.0946 
      22 C16       -2.5389    3.3370   10.2864 C.3       1 <0>         0.1064 
      23 C17       -2.2997    4.8176    9.9367 C.3       1 <0>        -0.1441 
      24 C18       -3.6451    5.5193    9.6740 C.3       1 <0>        -0.1224 
      25 C19       -4.5672    5.3274   10.8924 C.3       1 <0>        -0.1591 
      26 C20       -4.7161    3.8274   11.2084 C.3       1 <0>         0.0610 
      27 O2        -3.4391    3.2261   11.4424 O.3       1 <0>        -0.3733 
      28 F1        -0.5644   -0.9443    0.6916 F         1 <0>        -0.1330 
      29 H1         1.0128   -0.1798    4.8702 H         1 <0>         0.1477 
      30 H2         1.3133   -0.9228    2.5143 H         1 <0>         0.1461 
      31 H3        -2.8245   -0.1317    1.7286 H         1 <0>         0.1443 
      32 H4        -3.1330    0.6159    4.0829 H         1 <0>         0.1448 
      33 H5         1.1817    2.9545    6.5726 H         1 <0>         0.1036 
      34 H6         1.0328    1.9143    5.1404 H         1 <0>         0.1173 
      35 H7         1.8995   -0.0040    6.4533 H         1 <0>         0.0884 
      36 H8         2.0644    1.0502    7.8744 H         1 <0>         0.0565 
      37 H9         4.5609   -0.2447    6.8761 H         1 <0>         0.0519 
      38 H10        4.6530    1.0844    8.0246 H         1 <0>         0.0874 
      39 H11        6.0506    2.4183    6.5879 H         1 <0>         0.1012 
      40 H12        6.7733    0.8264    6.7929 H         1 <0>         0.0619 
      41 H13        4.9379    2.8877    4.4562 H         1 <0>         0.1015 
      42 H14        4.9485    1.6147    3.2391 H         1 <0>         0.0623 
      43 H15        3.4197    0.2537    4.5887 H         1 <0>         0.0895 
      44 H16        2.7206    1.8518    4.3396 H         1 <0>         0.0491 
      45 H17       -0.7417    3.1907   11.4599 H         1 <0>         0.1064 
      46 H18       -1.4396    1.6260   10.9883 H         1 <0>         0.1120 
      47 H19       -2.9778    2.8194    9.4359 H         1 <0>         0.0703 
      48 H20       -1.8138    5.2990   10.7828 H         1 <0>         0.0780 
      49 H21       -1.6458    4.9102    9.0720 H         1 <0>         0.0792 
      50 H22       -4.1150    5.0669    8.8032 H         1 <0>         0.0726 
      51 H23       -3.4959    6.5764    9.4648 H         1 <0>         0.0656 
      52 H24       -4.1136    5.8158   11.7524 H         1 <0>         0.0734 
      53 H25       -5.5379    5.7860   10.7159 H         1 <0>         0.0757 
      54 H26       -5.2237    3.3157   10.3936 H         1 <0>         0.0972 
      55 H27       -5.3107    3.6914   12.1095 H         1 <0>         0.0518 
@<TRIPOS>BOND
       1        1        6 ar       
       2        1        2 ar       
       3        1       29 1        
       4        2        3 ar       
       5        2       30 1        
       6        3        4 ar       
       7        3       28 1        
       8        4        5 ar       
       9        4       31 1        
      10        5        6 ar       
      11        5       32 1        
      12        6        7 1        
      13        7       11 1        
      14        7        8 2        
      15        8        9 1        
      16        9       10 2        
      17       10       11 1        
      18       10       20 1        
      19       11       12 1        
      20       12       13 1        
      21       12       33 1        
      22       12       34 1        
      23       13       14 1        
      24       13       35 1        
      25       13       36 1        
      26       14       19 1        
      27       14       15 1        
      28       15       16 1        
      29       15       37 1        
      30       15       38 1        
      31       16       17 1        
      32       16       39 1        
      33       16       40 1        
      34       17       18 1        
      35       18       19 1        
      36       18       41 1        
      37       18       42 1        
      38       19       43 1        
      39       19       44 1        
      40       20       21 1        
      41       21       22 1        
      42       21       45 1        
      43       21       46 1        
      44       22       27 1        
      45       22       23 1        
      46       22       47 1        
      47       23       24 1        
      48       23       48 1        
      49       23       49 1        
      50       24       25 1        
      51       24       50 1        
      52       24       51 1        
      53       25       26 1        
      54       25       52 1        
      55       25       53 1        
      56       26       27 1        
      57       26       54 1        
      58       26       55 1        

