#        1GCZ_R01_S0001_C0000_L00020_S0001_C0005_G0010_E0001.mol2
#        Tue Jun  6 14:20:24 2017
#        Descriptor:     18    12    32    11     7    14
#        Energy - RMSD - RMSD MassCentre:     -56.7296    999.9999    999.9999
#        Receptor:       1  Surface Point:     1  Conformer:     0
#        Ligand:        20  Surface Point:     1  Conformer:     5
#        BUDE Formal Charge: 0
#        ATOM Count: 55
#        Heavy ATOM Count: 28
@<TRIPOS>MOLECULE
ZINC61153122_1GCZ_R01_S0001_C0000_L00020_S0001_C0005_G0010_E0001
 55 58 0 0 0
SMALL
USER_CHARGES
@<TRIPOS>ATOM
       1 C1        -0.1994   -0.2600    4.6435 C.ar      1 <0>        -0.0442 
       2 C2        -1.3539   -0.3798    3.8607 C.ar      1 <0>        -0.1492 
       3 C3        -1.3840    0.1636    2.5709 C.ar      1 <0>         0.1157 
       4 C4        -0.2710    0.8466    2.0728 C.ar      1 <0>        -0.1468 
       5 C5         0.8855    0.9646    2.8525 C.ar      1 <0>        -0.0895 
       6 C6         0.9238    0.4024    4.1341 C.ar      1 <0>        -0.0299 
       7 C7         2.1547    0.5078    4.9491 C.2       1 <0>         0.2272 
       8 N1         2.9105    1.5900    4.9613 N.2       1 <0>        -0.2636 
       9 N2         3.9866    1.2869    5.8567 N.2       1 <0>        -0.2879 
      10 C8         3.7587    0.0586    6.2827 C.2       1 <0>         0.1630 
      11 N3         2.6224   -0.4962    5.7553 N.pl3     1 <0>        -0.4552 
      12 C9         2.0361   -1.8238    5.9891 C.3       1 <0>         0.0974 
      13 C10        1.2820   -1.8217    7.3180 C.3       1 <0>         0.0332 
      14 N4         0.6823   -3.1448    7.5423 N.3       1 <0>        -0.5315 
      15 C11        0.1369   -3.4093    8.9125 C.3       1 <0>         0.0093 
      16 C12       -0.4815   -4.8146    9.0313 C.3       1 <0>         0.0640 
      17 O1        -1.4880   -4.9865    8.0302 O.3       1 <0>        -0.3828 
      18 C13       -0.9597   -4.8390    6.7096 C.3       1 <0>         0.0640 
      19 C14       -0.3501   -3.4360    6.5373 C.3       1 <0>         0.0177 
      20 S1         4.7851   -0.8301    7.4182 S.3       1 <0>         0.0123 
      21 C15        6.1949    0.2133    7.9043 C.3       1 <0>        -0.0946 
      22 C16        7.0173    0.5659    6.6657 C.3       1 <0>         0.1064 
      23 C17        7.6640   -0.6906    6.0535 C.3       1 <0>        -0.1441 
      24 C18        8.5730   -0.2927    4.8759 C.3       1 <0>        -0.1224 
      25 C19        9.6046    0.7453    5.3554 C.3       1 <0>        -0.1591 
      26 C20        8.8838    1.9449    5.9985 C.3       1 <0>         0.0610 
      27 O2         8.0540    1.5197    7.0837 O.3       1 <0>        -0.3733 
      28 F1        -2.4931    0.0346    1.8120 F         1 <0>        -0.1330 
      29 H1        -0.1747   -0.6756    5.6400 H         1 <0>         0.1477 
      30 H2        -2.2249   -0.8889    4.2459 H         1 <0>         0.1461 
      31 H3        -0.3088    1.2757    1.0824 H         1 <0>         0.1443 
      32 H4         1.7471    1.4912    2.4693 H         1 <0>         0.1448 
      33 H5         2.8286   -2.5685    6.0237 H         1 <0>         0.1036 
      34 H6         1.3481   -2.0646    5.1815 H         1 <0>         0.1173 
      35 H7         0.4982   -1.0676    7.2883 H         1 <0>         0.0884 
      36 H8         1.9739   -1.5947    8.1265 H         1 <0>         0.0565 
      37 H9        -0.6091   -2.6615    9.1733 H         1 <0>         0.0519 
      38 H10        0.9139   -3.3856    9.6737 H         1 <0>         0.0874 
      39 H11        0.2804   -5.5839    8.9234 H         1 <0>         0.1012 
      40 H12       -0.9628   -4.9517    9.9974 H         1 <0>         0.0619 
      41 H13       -0.2013   -5.5959    6.5213 H         1 <0>         0.1015 
      42 H14       -1.7757   -4.9966    6.0076 H         1 <0>         0.0623 
      43 H15       -1.1533   -2.7075    6.6267 H         1 <0>         0.0895 
      44 H16        0.0565   -3.3699    5.5303 H         1 <0>         0.0491 
      45 H17        6.8187   -0.3281    8.6125 H         1 <0>         0.1064 
      46 H18        5.8269    1.1260    8.3680 H         1 <0>         0.1120 
      47 H19        6.3624    1.0403    5.9378 H         1 <0>         0.0703 
      48 H20        8.2713   -1.1738    6.8160 H         1 <0>         0.0780 
      49 H21        6.9037   -1.3970    5.7269 H         1 <0>         0.0792 
      50 H22        7.9624    0.1542    4.0940 H         1 <0>         0.0726 
      51 H23        9.0691   -1.1660    4.4576 H         1 <0>         0.0656 
      52 H24       10.2395    0.2828    6.1082 H         1 <0>         0.0734 
      53 H25       10.2371    1.0679    4.5311 H         1 <0>         0.0757 
      54 H26        8.2855    2.4709    5.2576 H         1 <0>         0.0972 
      55 H27        9.6109    2.6478    6.3999 H         1 <0>         0.0518 
@<TRIPOS>BOND
       1        1        6 ar       
       2        1        2 ar       
       3        1       29 1        
       4        2        3 ar       
       5        2       30 1        
       6        3        4 ar       
       7        3       28 1        
       8        4        5 ar       
       9        4       31 1        
      10        5        6 ar       
      11        5       32 1        
      12        6        7 1        
      13        7       11 1        
      14        7        8 2        
      15        8        9 1        
      16        9       10 2        
      17       10       11 1        
      18       10       20 1        
      19       11       12 1        
      20       12       13 1        
      21       12       33 1        
      22       12       34 1        
      23       13       14 1        
      24       13       35 1        
      25       13       36 1        
      26       14       19 1        
      27       14       15 1        
      28       15       16 1        
      29       15       37 1        
      30       15       38 1        
      31       16       17 1        
      32       16       39 1        
      33       16       40 1        
      34       17       18 1        
      35       18       19 1        
      36       18       41 1        
      37       18       42 1        
      38       19       43 1        
      39       19       44 1        
      40       20       21 1        
      41       21       22 1        
      42       21       45 1        
      43       21       46 1        
      44       22       27 1        
      45       22       23 1        
      46       22       47 1        
      47       23       24 1        
      48       23       48 1        
      49       23       49 1        
      50       24       25 1        
      51       24       50 1        
      52       24       51 1        
      53       25       26 1        
      54       25       52 1        
      55       25       53 1        
      56       26       27 1        
      57       26       54 1        
      58       26       55 1        

