#        1GCZ_R01_S0001_C0000_L00020_S0001_C0006_G0010_E0001.mol2
#        Tue Jun  6 10:01:56 2017
#        Descriptor:     28    28    20     8     8    15
#        Energy - RMSD - RMSD MassCentre:     -53.5125    999.9999    999.9999
#        Receptor:       1  Surface Point:     1  Conformer:     0
#        Ligand:        20  Surface Point:     1  Conformer:     6
#        BUDE Formal Charge: 0
#        ATOM Count: 55
#        Heavy ATOM Count: 28
@<TRIPOS>MOLECULE
ZINC61153122_1GCZ_R01_S0001_C0000_L00020_S0001_C0006_G0010_E0001
 55 58 0 0 0
SMALL
USER_CHARGES
@<TRIPOS>ATOM
       1 C1         0.9495    4.4308    7.5095 C.ar      1 <0>        -0.0442 
       2 C2         1.6115    5.6607    7.6040 C.ar      1 <0>        -0.1492 
       3 C3         1.2077    6.6009    8.5594 C.ar      1 <0>         0.1157 
       4 C4         0.1287    6.3227    9.4030 C.ar      1 <0>        -0.1468 
       5 C5        -0.5325    5.0922    9.3124 C.ar      1 <0>        -0.0895 
       6 C6        -0.1151    4.1430    8.3719 C.ar      1 <0>        -0.0299 
       7 C7        -0.8001    2.8334    8.2919 C.2       1 <0>         0.2272 
       8 N1        -2.1044    2.7011    8.4460 N.2       1 <0>        -0.2636 
       9 N2        -2.3595    1.2990    8.3030 N.2       1 <0>        -0.2879 
      10 C8        -1.1826    0.7450    8.0790 C.2       1 <0>         0.1630 
      11 N3        -0.1532    1.6489    8.0568 N.pl3     1 <0>        -0.4552 
      12 C9         1.2820    1.4243    7.8322 C.3       1 <0>         0.0974 
      13 C10        1.5446    1.2598    6.3359 C.3       1 <0>         0.0332 
      14 N4         0.8991    0.0284    5.8586 N.3       1 <0>        -0.5315 
      15 C11       -0.0715    0.3047    4.7743 C.3       1 <0>         0.0093 
      16 C12        0.6195    0.6756    3.4490 C.3       1 <0>         0.0640 
      17 O1         1.5360   -0.3567    3.0758 O.3       1 <0>        -0.3828 
      18 C13        2.5449   -0.5610    4.0685 C.3       1 <0>         0.0640 
      19 C14        1.8968   -0.9529    5.4086 C.3       1 <0>         0.0177 
      20 S1        -0.9049   -0.9849    7.8279 S.3       1 <0>         0.0123 
      21 C15       -2.4906   -1.8730    7.9246 C.3       1 <0>        -0.0946 
      22 C16       -2.2508   -3.3665    7.7079 C.3       1 <0>         0.1064 
      23 C17       -1.4072   -3.9638    8.8494 C.3       1 <0>        -0.1441 
      24 C18       -1.0890   -5.4405    8.5500 C.3       1 <0>        -0.1224 
      25 C19       -0.4054   -5.5464    7.1741 C.3       1 <0>        -0.1591 
      26 C20       -1.2853   -4.8845    6.0972 C.3       1 <0>         0.0610 
      27 O2        -1.5507   -3.5172    6.4249 O.3       1 <0>        -0.3733 
      28 F1         1.8566    7.7805    8.6588 F         1 <0>        -0.1330 
      29 H1         1.2569    3.7050    6.7712 H         1 <0>         0.1477 
      30 H2         2.4335    5.8911    6.9426 H         1 <0>         0.1461 
      31 H3        -0.1854    7.0602   10.1267 H         1 <0>         0.1443 
      32 H4        -1.3661    4.8747    9.9638 H         1 <0>         0.1448 
      33 H5         1.5936    0.5229    8.3557 H         1 <0>         0.1036 
      34 H6         1.8462    2.2749    8.2086 H         1 <0>         0.1173 
      35 H7         2.6167    1.1994    6.1610 H         1 <0>         0.0884 
      36 H8         1.1368    2.1147    5.8006 H         1 <0>         0.0565 
      37 H9        -0.7461    1.1061    5.0683 H         1 <0>         0.0519 
      38 H10       -0.6745   -0.5686    4.5349 H         1 <0>         0.0874 
      39 H11       -0.1126    0.8218    2.6576 H         1 <0>         0.1012 
      40 H12        1.1940    1.5941    3.5491 H         1 <0>         0.0619 
      41 H13        3.2332   -1.3410    3.7501 H         1 <0>         0.1015 
      42 H14        3.1061    0.3659    4.1652 H         1 <0>         0.0623 
      43 H15        2.6860   -1.0296    6.1537 H         1 <0>         0.0895 
      44 H16        1.4485   -1.9369    5.2878 H         1 <0>         0.0491 
      45 H17       -3.1632   -1.4977    7.1561 H         1 <0>         0.1064 
      46 H18       -2.9348   -1.7150    8.9051 H         1 <0>         0.1120 
      47 H19       -3.2145   -3.8685    7.6545 H         1 <0>         0.0703 
      48 H20       -0.4722   -3.4111    8.9147 H         1 <0>         0.0780 
      49 H21       -1.9241   -3.8705    9.8022 H         1 <0>         0.0792 
      50 H22       -2.0195   -6.0038    8.5244 H         1 <0>         0.0726 
      51 H23       -0.4591   -5.8663    9.3283 H         1 <0>         0.0656 
      52 H24        0.5436   -5.0162    7.2152 H         1 <0>         0.0734 
      53 H25       -0.2018   -6.5858    6.9250 H         1 <0>         0.0757 
      54 H26       -2.2213   -5.4275    5.9841 H         1 <0>         0.0972 
      55 H27       -0.7747   -4.8964    5.1365 H         1 <0>         0.0518 
@<TRIPOS>BOND
       1        1        6 ar       
       2        1        2 ar       
       3        1       29 1        
       4        2        3 ar       
       5        2       30 1        
       6        3        4 ar       
       7        3       28 1        
       8        4        5 ar       
       9        4       31 1        
      10        5        6 ar       
      11        5       32 1        
      12        6        7 1        
      13        7       11 1        
      14        7        8 2        
      15        8        9 1        
      16        9       10 2        
      17       10       11 1        
      18       10       20 1        
      19       11       12 1        
      20       12       13 1        
      21       12       33 1        
      22       12       34 1        
      23       13       14 1        
      24       13       35 1        
      25       13       36 1        
      26       14       19 1        
      27       14       15 1        
      28       15       16 1        
      29       15       37 1        
      30       15       38 1        
      31       16       17 1        
      32       16       39 1        
      33       16       40 1        
      34       17       18 1        
      35       18       19 1        
      36       18       41 1        
      37       18       42 1        
      38       19       43 1        
      39       19       44 1        
      40       20       21 1        
      41       21       22 1        
      42       21       45 1        
      43       21       46 1        
      44       22       27 1        
      45       22       23 1        
      46       22       47 1        
      47       23       24 1        
      48       23       48 1        
      49       23       49 1        
      50       24       25 1        
      51       24       50 1        
      52       24       51 1        
      53       25       26 1        
      54       25       52 1        
      55       25       53 1        
      56       26       27 1        
      57       26       54 1        
      58       26       55 1        

