#        1GCZ_R01_S0001_C0000_L00020_S0001_C0006_G0010_E0001.mol2
#        Tue Jun  6 14:20:26 2017
#        Descriptor:     29    28    21     8     8    15
#        Energy - RMSD - RMSD MassCentre:     -53.8262    999.9999    999.9999
#        Receptor:       1  Surface Point:     1  Conformer:     0
#        Ligand:        20  Surface Point:     1  Conformer:     6
#        BUDE Formal Charge: 0
#        ATOM Count: 55
#        Heavy ATOM Count: 28
@<TRIPOS>MOLECULE
ZINC61153122_1GCZ_R01_S0001_C0000_L00020_S0001_C0006_G0010_E0001
 55 58 0 0 0
SMALL
USER_CHARGES
@<TRIPOS>ATOM
       1 C1         0.9319    4.4458    7.3997 C.ar      1 <0>        -0.0442 
       2 C2         1.5897    5.6796    7.4689 C.ar      1 <0>        -0.1492 
       3 C3         1.1714    6.6445    8.3929 C.ar      1 <0>         0.1157 
       4 C4         0.0823    6.3865    9.2300 C.ar      1 <0>        -0.1468 
       5 C5        -0.5747    5.1521    9.1648 C.ar      1 <0>        -0.0895 
       6 C6        -0.1429    4.1787    8.2561 C.ar      1 <0>        -0.0299 
       7 C7        -0.8236    2.8655    8.2033 C.2       1 <0>         0.2272 
       8 N1        -2.1294    2.7338    8.3444 N.2       1 <0>        -0.2636 
       9 N2        -2.3792    1.3276    8.2366 N.2       1 <0>        -0.2879 
      10 C8        -1.1982    0.7710    8.0430 C.2       1 <0>         0.1630 
      11 N3        -0.1709    1.6768    8.0091 N.pl3     1 <0>        -0.4552 
      12 C9         1.2677    1.4502    7.8090 C.3       1 <0>         0.0974 
      13 C10        1.5499    1.2455    6.3214 C.3       1 <0>         0.0332 
      14 N4         0.9136   -0.0004    5.8698 N.3       1 <0>        -0.5315 
      15 C11       -0.0436    0.2434    4.7661 C.3       1 <0>         0.0093 
      16 C12        0.6633    0.5798    3.4400 C.3       1 <0>         0.0640 
      17 O1         1.5871   -0.4599    3.1070 O.3       1 <0>        -0.3828 
      18 C13        2.5836   -0.6340    4.1177 C.3       1 <0>         0.0640 
      19 C14        1.9194   -0.9909    5.4597 C.3       1 <0>         0.0177 
      20 S1        -0.9130   -0.9643    7.8430 S.3       1 <0>         0.0123 
      21 C15       -2.4976   -1.8540    7.9438 C.3       1 <0>        -0.0946 
      22 C16       -2.2514   -3.3521    7.7712 C.3       1 <0>         0.1064 
      23 C17       -1.4210   -3.9155    8.9394 C.3       1 <0>        -0.1441 
      24 C18       -1.0954   -5.3990    8.6847 C.3       1 <0>        -0.1224 
      25 C19       -0.3940   -5.5407    7.3211 C.3       1 <0>        -0.1591 
      26 C20       -1.2616   -4.9110    6.2153 C.3       1 <0>         0.0610 
      27 O2        -1.5345   -3.5360    6.5019 O.3       1 <0>        -0.3733 
      28 F1         1.8160    7.8283    8.4682 F         1 <0>        -0.1330 
      29 H1         1.2506    3.7009    6.6856 H         1 <0>         0.1477 
      30 H2         2.4196    5.8941    6.8119 H         1 <0>         0.1461 
      31 H3        -0.2429    7.1427    9.9292 H         1 <0>         0.1443 
      32 H4        -1.4160    4.9503    9.8112 H         1 <0>         0.1448 
      33 H5         1.5748    0.5643    8.3611 H         1 <0>         0.1036 
      34 H6         1.8249    2.3124    8.1692 H         1 <0>         0.1173 
      35 H7         2.6243    1.1833    6.1619 H         1 <0>         0.0884 
      36 H8         1.1468    2.0842    5.7576 H         1 <0>         0.0565 
      37 H9        -0.7239    1.0506    5.0293 H         1 <0>         0.0519 
      38 H10       -0.6414   -0.6378    4.5430 H         1 <0>         0.0874 
      39 H11       -0.0589    0.7021    2.6356 H         1 <0>         0.1012 
      40 H12        1.2343    1.5023    3.5221 H         1 <0>         0.0619 
      41 H13        3.2779   -1.4205    3.8296 H         1 <0>         0.1015 
      42 H14        3.1413    0.2968    4.1960 H         1 <0>         0.0623 
      43 H15        2.6991   -1.0449    6.2166 H         1 <0>         0.0895 
      44 H16        1.4751   -1.9790    5.3602 H         1 <0>         0.0491 
      45 H17       -3.1613   -1.5018    7.1568 H         1 <0>         0.1064 
      46 H18       -2.9548   -1.6703    8.9139 H         1 <0>         0.1120 
      47 H19       -3.2131   -3.8581    7.7194 H         1 <0>         0.0703 
      48 H20       -0.4883   -3.3587    9.0015 H         1 <0>         0.0780 
      49 H21       -1.9503   -3.7976    9.8826 H         1 <0>         0.0792 
      50 H22       -2.0241   -5.9655    8.6627 H         1 <0>         0.0726 
      51 H23       -0.4745   -5.8015    9.4824 H         1 <0>         0.0656 
      52 H24        0.5531   -5.0069    7.3597 H         1 <0>         0.0734 
      53 H25       -0.1846   -6.5859    7.1032 H         1 <0>         0.0757 
      54 H26       -2.1947   -5.4596    6.1052 H         1 <0>         0.0972 
      55 H27       -0.7387   -4.9479    5.2619 H         1 <0>         0.0518 
@<TRIPOS>BOND
       1        1        6 ar       
       2        1        2 ar       
       3        1       29 1        
       4        2        3 ar       
       5        2       30 1        
       6        3        4 ar       
       7        3       28 1        
       8        4        5 ar       
       9        4       31 1        
      10        5        6 ar       
      11        5       32 1        
      12        6        7 1        
      13        7       11 1        
      14        7        8 2        
      15        8        9 1        
      16        9       10 2        
      17       10       11 1        
      18       10       20 1        
      19       11       12 1        
      20       12       13 1        
      21       12       33 1        
      22       12       34 1        
      23       13       14 1        
      24       13       35 1        
      25       13       36 1        
      26       14       19 1        
      27       14       15 1        
      28       15       16 1        
      29       15       37 1        
      30       15       38 1        
      31       16       17 1        
      32       16       39 1        
      33       16       40 1        
      34       17       18 1        
      35       18       19 1        
      36       18       41 1        
      37       18       42 1        
      38       19       43 1        
      39       19       44 1        
      40       20       21 1        
      41       21       22 1        
      42       21       45 1        
      43       21       46 1        
      44       22       27 1        
      45       22       23 1        
      46       22       47 1        
      47       23       24 1        
      48       23       48 1        
      49       23       49 1        
      50       24       25 1        
      51       24       50 1        
      52       24       51 1        
      53       25       26 1        
      54       25       52 1        
      55       25       53 1        
      56       26       27 1        
      57       26       54 1        
      58       26       55 1        

