#        1GCZ_R01_S0001_C0000_L00020_S0001_C0007_G0010_E0001.mol2
#        Tue Jun  6 10:01:57 2017
#        Descriptor:     15    15    12     8    10    15
#        Energy - RMSD - RMSD MassCentre:     -57.2916    999.9999    999.9999
#        Receptor:       1  Surface Point:     1  Conformer:     0
#        Ligand:        20  Surface Point:     1  Conformer:     7
#        BUDE Formal Charge: 0
#        ATOM Count: 55
#        Heavy ATOM Count: 28
@<TRIPOS>MOLECULE
ZINC61153122_1GCZ_R01_S0001_C0000_L00020_S0001_C0007_G0010_E0001
 55 58 0 0 0
SMALL
USER_CHARGES
@<TRIPOS>ATOM
       1 C1         0.0047   -0.0295    3.0676 C.ar      1 <0>        -0.0442 
       2 C2         0.3794   -0.3250    1.7515 C.ar      1 <0>        -0.1492 
       3 C3        -0.5803   -0.3174    0.7324 C.ar      1 <0>         0.1157 
       4 C4        -1.9168   -0.0388    1.0315 C.ar      1 <0>        -0.1468 
       5 C5        -2.2931    0.2603    2.3463 C.ar      1 <0>        -0.0895 
       6 C6        -1.3298    0.2742    3.3620 C.ar      1 <0>        -0.0299 
       7 C7        -1.7243    0.6126    4.7478 C.2       1 <0>         0.2272 
       8 N1        -2.8655    0.2170    5.2804 N.2       1 <0>        -0.2636 
       9 N2        -2.8644    0.7496    6.6100 N.2       1 <0>        -0.2879 
      10 C8        -1.7249    1.4049    6.7290 C.2       1 <0>         0.1630 
      11 N3        -0.9539    1.3620    5.5973 N.pl3     1 <0>        -0.4552 
      12 C9         0.3670    1.9553    5.3442 C.3       1 <0>         0.0974 
      13 C10        1.4487    1.0815    5.9775 C.3       1 <0>         0.0332 
      14 N4         2.7699    1.6672    5.7091 N.3       1 <0>        -0.5315 
      15 C11        3.0088    3.0496    6.2351 C.3       1 <0>         0.0093 
      16 C12        4.4266    3.5577    5.9133 C.3       1 <0>         0.0640 
      17 O1         5.3967    2.6359    6.4174 O.3       1 <0>        -0.3828 
      18 C13        5.2459    1.3342    5.8450 C.3       1 <0>         0.0640 
      19 C14        3.8471    0.7755    6.1624 C.3       1 <0>         0.0177 
      20 S1        -1.1971    2.2706    8.1798 S.3       1 <0>         0.0123 
      21 C15       -2.4664    2.1125    9.4746 C.3       1 <0>        -0.0946 
      22 C16       -2.0108    2.8599   10.7271 C.3       1 <0>         0.1064 
      23 C17       -3.0055    2.6582   11.8854 C.3       1 <0>        -0.1441 
      24 C18       -2.5802    3.5088   13.0967 C.3       1 <0>        -0.1224 
      25 C19       -2.4459    4.9808   12.6649 C.3       1 <0>        -0.1591 
      26 C20       -1.4761    5.0932   11.4737 C.3       1 <0>         0.0610 
      27 O2        -1.9170    4.2843   10.3789 O.3       1 <0>        -0.3733 
      28 F1        -0.2146   -0.5884   -0.5385 F         1 <0>        -0.1330 
      29 H1         0.7426   -0.0378    3.8562 H         1 <0>         0.1477 
      30 H2         1.4066   -0.5607    1.5156 H         1 <0>         0.1461 
      31 H3        -2.6529   -0.0501    0.2413 H         1 <0>         0.1443 
      32 H4        -3.3252    0.4767    2.5796 H         1 <0>         0.1448 
      33 H5         0.4057    2.9517    5.7795 H         1 <0>         0.1036 
      34 H6         0.5358    2.0221    4.2715 H         1 <0>         0.1173 
      35 H7         1.4012    0.0813    5.5519 H         1 <0>         0.0884 
      36 H8         1.2870    1.0271    7.0521 H         1 <0>         0.0565 
      37 H9         2.8491    3.0777    7.3110 H         1 <0>         0.0519 
      38 H10        2.3448    3.7812    5.7795 H         1 <0>         0.0874 
      39 H11        4.5596    3.6823    4.8407 H         1 <0>         0.1012 
      40 H12        4.6177    4.5171    6.3894 H         1 <0>         0.0619 
      41 H13        5.3892    1.3783    4.7674 H         1 <0>         0.1015 
      42 H14        6.0224    0.6971    6.2631 H         1 <0>         0.0623 
      43 H15        3.7744    0.6442    7.2400 H         1 <0>         0.0895 
      44 H16        3.7647   -0.2037    5.6955 H         1 <0>         0.0491 
      45 H17       -2.6125    1.0608    9.7120 H         1 <0>         0.1064 
      46 H18       -3.4022    2.5379    9.1180 H         1 <0>         0.1120 
      47 H19       -1.0273    2.4922   11.0120 H         1 <0>         0.0703 
      48 H20       -3.9900    2.9851   11.5573 H         1 <0>         0.0780 
      49 H21       -3.0708    1.6077   12.1609 H         1 <0>         0.0792 
      50 H22       -1.6140    3.1576   13.4529 H         1 <0>         0.0726 
      51 H23       -3.2956    3.4084   13.9104 H         1 <0>         0.0656 
      52 H24       -3.4223    5.3409   12.3475 H         1 <0>         0.0734 
      53 H25       -2.1124    5.5968   13.4974 H         1 <0>         0.0757 
      54 H26       -0.4719    4.7992   11.7717 H         1 <0>         0.0972 
      55 H27       -1.4319    6.1219   11.1221 H         1 <0>         0.0518 
@<TRIPOS>BOND
       1        1        6 ar       
       2        1        2 ar       
       3        1       29 1        
       4        2        3 ar       
       5        2       30 1        
       6        3        4 ar       
       7        3       28 1        
       8        4        5 ar       
       9        4       31 1        
      10        5        6 ar       
      11        5       32 1        
      12        6        7 1        
      13        7       11 1        
      14        7        8 2        
      15        8        9 1        
      16        9       10 2        
      17       10       11 1        
      18       10       20 1        
      19       11       12 1        
      20       12       13 1        
      21       12       33 1        
      22       12       34 1        
      23       13       14 1        
      24       13       35 1        
      25       13       36 1        
      26       14       19 1        
      27       14       15 1        
      28       15       16 1        
      29       15       37 1        
      30       15       38 1        
      31       16       17 1        
      32       16       39 1        
      33       16       40 1        
      34       17       18 1        
      35       18       19 1        
      36       18       41 1        
      37       18       42 1        
      38       19       43 1        
      39       19       44 1        
      40       20       21 1        
      41       21       22 1        
      42       21       45 1        
      43       21       46 1        
      44       22       27 1        
      45       22       23 1        
      46       22       47 1        
      47       23       24 1        
      48       23       48 1        
      49       23       49 1        
      50       24       25 1        
      51       24       50 1        
      52       24       51 1        
      53       25       26 1        
      54       25       52 1        
      55       25       53 1        
      56       26       27 1        
      57       26       54 1        
      58       26       55 1        

