#        1GCZ_R01_S0001_C0000_L00020_S0001_C0007_G0010_E0001.mol2
#        Tue Jun  6 14:20:28 2017
#        Descriptor:     24     1    19     9     7    14
#        Energy - RMSD - RMSD MassCentre:     -59.5926    999.9999    999.9999
#        Receptor:       1  Surface Point:     1  Conformer:     0
#        Ligand:        20  Surface Point:     1  Conformer:     7
#        BUDE Formal Charge: 0
#        ATOM Count: 55
#        Heavy ATOM Count: 28
@<TRIPOS>MOLECULE
ZINC61153122_1GCZ_R01_S0001_C0000_L00020_S0001_C0007_G0010_E0001
 55 58 0 0 0
SMALL
USER_CHARGES
@<TRIPOS>ATOM
       1 C1         0.8573    3.3265    6.9186 C.ar      1 <0>        -0.0442 
       2 C2         0.8566    4.7087    6.6968 C.ar      1 <0>        -0.1492 
       3 C3         1.7898    5.5225    7.3501 C.ar      1 <0>         0.1157 
       4 C4         2.7068    4.9594    8.2419 C.ar      1 <0>        -0.1468 
       5 C5         2.7115    3.5770    8.4625 C.ar      1 <0>        -0.0895 
       6 C6         1.7927    2.7602    7.7928 C.ar      1 <0>        -0.0299 
       7 C7         1.8129    1.2962    8.0092 C.2       1 <0>         0.2272 
       8 N1         2.0488    0.7537    9.1893 N.2       1 <0>        -0.2636 
       9 N2         1.9853   -0.6606    8.9723 N.2       1 <0>        -0.2879 
      10 C8         1.7187   -0.8112    7.6884 C.2       1 <0>         0.1630 
      11 N3         1.5950    0.3768    7.0173 N.pl3     1 <0>        -0.4552 
      12 C9         1.2975    0.6213    5.5987 C.3       1 <0>         0.0974 
      13 C10       -0.2024    0.4588    5.3565 C.3       1 <0>         0.0332 
      14 N4        -0.5005    0.7201    3.9411 N.3       1 <0>        -0.5315 
      15 C11        0.1687   -0.1717    2.9401 C.3       1 <0>         0.0093 
      16 C12       -0.2262    0.1783    1.4933 C.3       1 <0>         0.0640 
      17 O1        -1.6490    0.1357    1.3566 O.3       1 <0>        -0.3828 
      18 C13       -2.2987    1.0585    2.2347 C.3       1 <0>         0.0640 
      19 C14       -1.9502    0.7314    3.6979 C.3       1 <0>         0.0177 
      20 S1         1.5313   -2.3667    6.8650 S.3       1 <0>         0.0123 
      21 C15        1.7610   -3.7176    8.0629 C.3       1 <0>        -0.0946 
      22 C16        1.5993   -5.0604    7.3520 C.3       1 <0>         0.1064 
      23 C17        1.6754   -6.2294    8.3516 C.3       1 <0>        -0.1441 
      24 C18        1.6200   -7.5705    7.5965 C.3       1 <0>        -0.1224 
      25 C19        2.7379   -7.6067    6.5380 C.3       1 <0>        -0.1591 
      26 C20        2.6240   -6.3825    5.6105 C.3       1 <0>         0.0610 
      27 O2         2.6798   -5.1662    6.3619 O.3       1 <0>        -0.3733 
      28 F1         1.7971    6.8534    7.1240 F         1 <0>        -0.1330 
      29 H1         0.1364    2.6969    6.4183 H         1 <0>         0.1477 
      30 H2         0.1384    5.1540    6.0243 H         1 <0>         0.1461 
      31 H3         3.4131    5.5969    8.7528 H         1 <0>         0.1443 
      32 H4         3.4197    3.1396    9.1505 H         1 <0>         0.1448 
      33 H5         1.8427   -0.0936    4.9860 H         1 <0>         0.1036 
      34 H6         1.6010    1.6316    5.3326 H         1 <0>         0.1173 
      35 H7        -0.7482    1.1645    5.9792 H         1 <0>         0.0884 
      36 H8        -0.5020   -0.5561    5.6095 H         1 <0>         0.0565 
      37 H9        -0.0734   -1.2133    3.1404 H         1 <0>         0.0519 
      38 H10        1.2518   -0.0702    2.9615 H         1 <0>         0.0874 
      39 H11        0.1406    1.1652    1.2192 H         1 <0>         0.1012 
      40 H12        0.1857   -0.5412    0.7887 H         1 <0>         0.0619 
      41 H13       -1.9943    2.0768    2.0022 H         1 <0>         0.1015 
      42 H14       -3.3702    0.9791    2.0638 H         1 <0>         0.0623 
      43 H15       -2.3604   -0.2493    3.9298 H         1 <0>         0.0895 
      44 H16       -2.4458    1.4642    4.3312 H         1 <0>         0.0491 
      45 H17        1.0167   -3.6322    8.8519 H         1 <0>         0.1064 
      46 H18        2.7575   -3.6528    8.4948 H         1 <0>         0.1120 
      47 H19        0.6390   -5.0690    6.8408 H         1 <0>         0.0703 
      48 H20        2.6215   -6.1677    8.8852 H         1 <0>         0.0780 
      49 H21        0.8698   -6.1685    9.0804 H         1 <0>         0.0792 
      50 H22        0.6582   -7.6535    7.0947 H         1 <0>         0.0726 
      51 H23        1.7132   -8.4070    8.2860 H         1 <0>         0.0656 
      52 H24        3.6993   -7.5643    7.0456 H         1 <0>         0.0734 
      53 H25        2.6972   -8.5322    5.9674 H         1 <0>         0.0757 
      54 H26        1.6995   -6.4234    5.0384 H         1 <0>         0.0972 
      55 H27        3.4522   -6.3683    4.9050 H         1 <0>         0.0518 
@<TRIPOS>BOND
       1        1        6 ar       
       2        1        2 ar       
       3        1       29 1        
       4        2        3 ar       
       5        2       30 1        
       6        3        4 ar       
       7        3       28 1        
       8        4        5 ar       
       9        4       31 1        
      10        5        6 ar       
      11        5       32 1        
      12        6        7 1        
      13        7       11 1        
      14        7        8 2        
      15        8        9 1        
      16        9       10 2        
      17       10       11 1        
      18       10       20 1        
      19       11       12 1        
      20       12       13 1        
      21       12       33 1        
      22       12       34 1        
      23       13       14 1        
      24       13       35 1        
      25       13       36 1        
      26       14       19 1        
      27       14       15 1        
      28       15       16 1        
      29       15       37 1        
      30       15       38 1        
      31       16       17 1        
      32       16       39 1        
      33       16       40 1        
      34       17       18 1        
      35       18       19 1        
      36       18       41 1        
      37       18       42 1        
      38       19       43 1        
      39       19       44 1        
      40       20       21 1        
      41       21       22 1        
      42       21       45 1        
      43       21       46 1        
      44       22       27 1        
      45       22       23 1        
      46       22       47 1        
      47       23       24 1        
      48       23       48 1        
      49       23       49 1        
      50       24       25 1        
      51       24       50 1        
      52       24       51 1        
      53       25       26 1        
      54       25       52 1        
      55       25       53 1        
      56       26       27 1        
      57       26       54 1        
      58       26       55 1        

