#        1GCZ_R01_S0001_C0000_L00003_S0001_C0041_G0010_E0001.mol2
#        Tue Jun  6 14:04:50 2017
#        Descriptor:      2    34    35     9     9    14
#        Energy - RMSD - RMSD MassCentre:     -57.4643    999.9999    999.9999
#        Receptor:       1  Surface Point:     1  Conformer:     0
#        Ligand:         3  Surface Point:     1  Conformer:    41
#        BUDE Formal Charge: 0
#        ATOM Count: 58
#        Heavy ATOM Count: 30
@<TRIPOS>MOLECULE
ZINC61580633_1GCZ_R01_S0001_C0000_L00003_S0001_C0041_G0010_E0001
 58 59 0 0 0
SMALL
USER_CHARGES
@<TRIPOS>ATOM
       1 C1         2.8212   -1.3024    3.5643 C.3       1 <0>        -0.1532 
       2 C2         3.6637   -0.5939    4.6210 C.3       1 <0>        -0.1224 
       3 C3         4.2083    0.7124    4.0450 C.3       1 <0>        -0.1198 
       4 C4         5.0521    1.4219    5.1031 C.3       1 <0>         0.0610 
       5 O1         4.2254    1.7679    6.2173 O.3       1 <0>        -0.3878 
       6 C5         3.1660    2.6527    5.8430 C.3       1 <0>         0.0487 
       7 C6         2.3216    2.9837    7.0725 C.3       1 <0>         0.1244 
       8 N1         1.2329    3.8932    6.6877 N.am      1 <0>        -0.7216 
       9 C7         0.3664    4.3175    7.6033 C.2       1 <0>         0.5161 
      10 O2        -0.5451    5.0784    7.2826 O.2       1 <0>        -0.5151 
      11 C8         0.5019    3.8646    9.0374 C.3       1 <0>         0.0490 
      12 O3         0.1757    2.4754    9.1306 O.3       1 <0>        -0.3194 
      13 C9         0.2407    1.8898   10.3452 C.2       1 <0>         0.5417 
      14 O4         0.5699    2.5432   11.3215 O.2       1 <0>        -0.5337 
      15 C10       -0.0876    0.4543   10.4924 C.2       1 <0>        -0.2559 
      16 C11       -0.0360   -0.2884   11.7716 C.2       1 <0>        -0.0791 
      17 C12       -0.3661   -1.5738   11.6270 C.2       1 <0>        -0.2585 
      18 S1        -0.7689   -1.9914    9.9549 S.3       1 <0>         0.3028 
      19 C13       -0.4558   -0.3203    9.4629 C.2       1 <0>         0.0893 
      20 N2        -0.5567    0.1638    8.1852 N.am      1 <0>        -0.6099 
      21 C14       -0.9262   -0.6432    7.1947 C.2       1 <0>         0.5551 
      22 O5        -1.1776   -1.8248    7.4259 O.2       1 <0>        -0.4939 
      23 C15       -1.0347   -0.1187    5.8151 C.ar      1 <0>        -0.1466 
      24 C16       -1.4237   -1.0037    4.8024 C.ar      1 <0>        -0.0772 
      25 C17       -1.4730   -0.5852    3.4674 C.ar      1 <0>        -0.1241 
      26 C18       -1.1239    0.7246    3.1187 C.ar      1 <0>        -0.0446 
      27 C19       -0.7857    1.6262    4.1349 C.ar      1 <0>        -0.1261 
      28 C20       -0.7659    1.2117    5.4720 C.ar      1 <0>        -0.0460 
      29 C21       -1.1236    1.1389    1.6665 C.3       1 <0>        -0.0928 
      30 C22        0.2566    0.8865    1.0668 C.3       1 <0>        -0.1485 
      31 H1         3.4413   -1.5301    2.6997 H         1 <0>         0.0567 
      32 H2         2.0003   -0.6556    3.2622 H         1 <0>         0.0554 
      33 H3         2.4224   -2.2260    3.9787 H         1 <0>         0.0557 
      34 H4         3.0477   -0.3769    5.4912 H         1 <0>         0.0632 
      35 H5         4.4933   -1.2342    4.9136 H         1 <0>         0.0635 
      36 H6         4.8251    0.4967    3.1751 H         1 <0>         0.0711 
      37 H7         3.3797    1.3540    3.7526 H         1 <0>         0.0704 
      38 H8         5.8495    0.7605    5.4354 H         1 <0>         0.0498 
      39 H9         5.4832    2.3259    4.6777 H         1 <0>         0.0505 
      40 H10        2.5408    2.1737    5.0925 H         1 <0>         0.0584 
      41 H11        3.5858    3.5696    5.4346 H         1 <0>         0.0702 
      42 H12        2.9458    3.4635    7.8235 H         1 <0>         0.0872 
      43 H13        1.9005    2.0676    7.4814 H         1 <0>         0.0805 
      44 H14        1.1422    4.1961    5.7285 H         1 <0>         0.4058 
      45 H15        1.5255    4.0193    9.3721 H         1 <0>         0.1008 
      46 H16       -0.1762    4.4387    9.6652 H         1 <0>         0.0999 
      47 H17        0.2299    0.1804   12.7074 H         1 <0>         0.1557 
      48 H18       -0.3929   -2.2678   12.4541 H         1 <0>         0.1929 
      49 H19       -0.3503    1.1340    7.9954 H         1 <0>         0.4317 
      50 H20       -1.6848   -2.0218    5.0506 H         1 <0>         0.1287 
      51 H21       -1.7807   -1.2751    2.6956 H         1 <0>         0.1326 
      52 H22       -0.5446    2.6460    3.8733 H         1 <0>         0.1342 
      53 H23       -0.5558    1.9650    6.2168 H         1 <0>         0.1410 
      54 H24       -1.3642    2.1973    1.5921 H         1 <0>         0.0777 
      55 H25       -1.8672    0.5584    1.1244 H         1 <0>         0.0771 
      56 H26        0.4907   -0.1741    1.1305 H         1 <0>         0.0623 
      57 H27        1.0011    1.4565    1.6188 H         1 <0>         0.0572 
      58 H28        0.2606    1.1974    0.0242 H         1 <0>         0.0578 
@<TRIPOS>BOND
       1        1        2 1        
       2        1       31 1        
       3        1       32 1        
       4        1       33 1        
       5        2        3 1        
       6        2       34 1        
       7        2       35 1        
       8        3        4 1        
       9        3       36 1        
      10        3       37 1        
      11        4        5 1        
      12        4       38 1        
      13        4       39 1        
      14        5        6 1        
      15        6        7 1        
      16        6       40 1        
      17        6       41 1        
      18        7        8 1        
      19        7       42 1        
      20        7       43 1        
      21        8        9 am       
      22        8       44 1        
      23        9       10 2        
      24        9       11 1        
      25       11       12 1        
      26       11       45 1        
      27       11       46 1        
      28       12       13 1        
      29       13       14 2        
      30       13       15 1        
      31       15       19 2        
      32       15       16 1        
      33       16       17 2        
      34       16       47 1        
      35       17       18 1        
      36       17       48 1        
      37       18       19 1        
      38       19       20 1        
      39       20       21 am       
      40       20       49 1        
      41       21       22 2        
      42       21       23 1        
      43       23       28 ar       
      44       23       24 ar       
      45       24       25 ar       
      46       24       50 1        
      47       25       26 ar       
      48       25       51 1        
      49       26       27 ar       
      50       26       29 1        
      51       27       28 ar       
      52       27       52 1        
      53       28       53 1        
      54       29       30 1        
      55       29       54 1        
      56       29       55 1        
      57       30       56 1        
      58       30       57 1        
      59       30       58 1        

