#        1GCZ_R01_S0001_C0000_L00021_S0001_C0001_G0010_E0001.mol2
#        Tue Jun  6 10:01:58 2017
#        Descriptor:     33     1     8     7     9    14
#        Energy - RMSD - RMSD MassCentre:     -42.6229    999.9999    999.9999
#        Receptor:       1  Surface Point:     1  Conformer:     0
#        Ligand:        21  Surface Point:     1  Conformer:     1
#        BUDE Formal Charge: 0
#        ATOM Count: 34
#        Heavy ATOM Count: 16
@<TRIPOS>MOLECULE
ZINC04900664_0_1GCZ_R01_S0001_C0000_L00021_S0001_C0001_G0010_E0001
 34 34 1 0 0
SMALL
USER_CHARGES
INVALID_CHARGES
@<TRIPOS>ATOM
       1 C1        -3.4558   -0.5727    4.4906 C.3       1 <1>        -0.1483 
       2 C2        -2.1257   -0.4588    3.7514 C.3       1 <1>        -0.6308 
       3 S1        -0.7738   -0.3834    4.9525 S.o2      1 <1>         2.6056 
       4 O1        -0.7668   -1.5791    5.7367 O.2       1 <1>        -0.9507 
       5 O2         0.4722   -0.2601    4.2617 O.2       1 <1>        -0.9507 
       6 N1        -1.0000    0.9993    6.0010 N.pl3     1 <1>        -1.0001 
       7 C3        -1.6096    2.2543    5.4890 C.3       1 <1>         0.1048 
       8 C4        -0.6349    3.4228    5.7247 C.3       1 <1>         0.1046 
       9 N2        -0.1648    3.3735    7.1166 N.pl3     1 <1>        -1.0001 
      10 C5         0.4420    2.1357    7.6270 C.3       1 <1>         0.1047 
      11 C6        -0.5267    0.9620    7.3921 C.3       1 <1>         0.1046 
      12 S2        -0.4608    4.7228    8.1911 S.o2      1 <1>         2.6056 
      13 O3         0.4714    4.6815    9.2748 O.2       1 <1>        -0.9507 
      14 O4        -1.7931    4.6392    8.7039 O.2       1 <1>        -0.9507 
      15 C7        -0.2600    6.2736    7.2799 C.3       1 <1>        -0.6308 
      16 C8         1.1673    6.3691    6.7484 C.3       1 <1>        -0.1483 
      17 H1        -3.5946    0.3017    5.1228 H         1 <1>         0.0728 
      18 H2        -3.4519   -1.4696    5.1065 H         1 <1>         0.0728 
      19 H3        -4.2674   -0.6316    3.7684 H         1 <1>         0.0832 
      20 H4        -1.9915   -1.3268    3.1092 H         1 <1>         0.1313 
      21 H5        -2.1229    0.4450    3.1458 H         1 <1>         0.1314 
      22 H6        -2.5382    2.4286    6.0283 H         1 <1>         0.1079 
      23 H7        -1.8436    2.1797    4.4292 H         1 <1>         0.0793 
      24 H8         0.2325    3.3146    5.0770 H         1 <1>         0.1077 
      25 H9        -1.1158    4.3730    5.5020 H         1 <1>         0.0793 
      26 H10        1.3618    1.9677    7.0708 H         1 <1>         0.1080 
      27 H11        0.6847    2.2175    8.6844 H         1 <1>         0.0793 
      28 H12       -1.3960    1.0676    8.0378 H         1 <1>         0.0791 
      29 H13       -0.0397    0.0163    7.6211 H         1 <1>         0.1080 
      30 H14       -0.4571    7.1121    7.9445 H         1 <1>         0.1314 
      31 H15       -0.9601    6.2976    6.4474 H         1 <1>         0.1314 
      32 H16        1.3589    5.5370    6.0742 H         1 <1>         0.0728 
      33 H17        1.8669    6.3308    7.5808 H         1 <1>         0.0728 
      34 H18        1.2918    7.3075    6.2120 H         1 <1>         0.0832 
@<TRIPOS>BOND
       1        1        2 1        
       2        1       17 1        
       3        1       18 1        
       4        1       19 1        
       5        2        3 1        
       6        2       20 1        
       7        2       21 1        
       8        3        4 2        
       9        3        5 2        
      10        3        6 1        
      11        6       11 1        
      12        6        7 1        
      13        7        8 1        
      14        7       22 1        
      15        7       23 1        
      16        8        9 1        
      17        8       24 1        
      18        8       25 1        
      19        9       10 1        
      20        9       12 1        
      21       10       11 1        
      22       10       26 1        
      23       10       27 1        
      24       11       28 1        
      25       11       29 1        
      26       12       13 2        
      27       12       14 2        
      28       12       15 1        
      29       15       16 1        
      30       15       30 1        
      31       15       31 1        
      32       16       32 1        
      33       16       33 1        
      34       16       34 1        
@<TRIPOS>SUBSTRUCTURE
 1 **** 1 TEMP 0 **** **** 0 ROOT

