#        1GCZ_R01_S0001_C0000_L00021_S0001_C0001_G0010_E0001.mol2
#        Tue Jun  6 14:20:30 2017
#        Descriptor:     12    14    20     8     9    11
#        Energy - RMSD - RMSD MassCentre:     -38.9013    999.9999    999.9999
#        Receptor:       1  Surface Point:     1  Conformer:     0
#        Ligand:        21  Surface Point:     1  Conformer:     1
#        BUDE Formal Charge: 0
#        ATOM Count: 34
#        Heavy ATOM Count: 16
@<TRIPOS>MOLECULE
ZINC04900664_0_1GCZ_R01_S0001_C0000_L00021_S0001_C0001_G0010_E0001
 34 34 1 0 0
SMALL
USER_CHARGES
INVALID_CHARGES
@<TRIPOS>ATOM
       1 C1        -0.7828    2.0838    0.0008 C.3       1 <1>        -0.1483 
       2 C2        -0.0928    0.7270    0.1072 C.3       1 <1>        -0.6308 
       3 S1        -0.5150   -0.0408    1.6909 S.o2      1 <1>         2.6056 
       4 O1        -1.9300   -0.2339    1.7638 O.2       1 <1>        -0.9507 
       5 O2         0.1440   -1.3053    1.7992 O.2       1 <1>        -0.9507 
       6 N1        -0.0011    1.0001    3.0004 N.pl3     1 <1>        -1.0001 
       7 C3         1.2270    1.8284    2.8806 C.3       1 <1>         0.1048 
       8 C4         2.1858    1.4813    4.0343 C.3       1 <1>         0.1046 
       9 N2         1.4330    1.4991    5.2969 N.pl3     1 <1>        -1.0001 
      10 C5         0.2195    0.6790    5.4218 C.3       1 <1>         0.1047 
      11 C6        -0.7432    1.0192    4.2691 C.3       1 <1>         0.1046 
      12 S2         1.8954    2.5970    6.5788 S.o2      1 <1>         2.6056 
      13 O3         1.3853    2.1153    7.8249 O.2       1 <1>        -0.9507 
      14 O4         1.3564    3.8943    6.3117 O.2       1 <1>        -0.9507 
      15 C7         3.7004    2.6982    6.6633 C.3       1 <1>        -0.6308 
      16 C8         4.2728    1.3162    6.9658 C.3       1 <1>        -0.1483 
      17 H1        -0.4400    2.7285    0.8073 H         1 <1>         0.0728 
      18 H2        -1.8598    1.9491    0.0761 H         1 <1>         0.0728 
      19 H3        -0.5398    2.5394   -0.9569 H         1 <1>         0.0832 
      20 H4        -0.4254    0.0855   -0.7063 H         1 <1>         0.1313 
      21 H5         0.9850    0.8617    0.0461 H         1 <1>         0.1314 
      22 H6         0.9398    2.8763    2.9367 H         1 <1>         0.1079 
      23 H7         1.7256    1.6655    1.9275 H         1 <1>         0.0793 
      24 H8         2.5790    0.4764    3.8961 H         1 <1>         0.1077 
      25 H9         3.0207    2.1784    4.0607 H         1 <1>         0.0793 
      26 H10        0.5200   -0.3643    5.3515 H         1 <1>         0.1080 
      27 H11       -0.2707    0.8361    6.3803 H         1 <1>         0.0793 
      28 H12       -1.1377    2.0242    4.4038 H         1 <1>         0.0791 
      29 H13       -1.5772    0.3205    4.2524 H         1 <1>         0.1080 
      30 H14        3.9877    3.3909    7.4515 H         1 <1>         0.1314 
      31 H15        4.0883    3.0514    5.7101 H         1 <1>         0.1314 
      32 H16        3.9954    0.6275    6.1706 H         1 <1>         0.0728 
      33 H17        3.8733    0.9581    7.9123 H         1 <1>         0.0728 
      34 H18        5.3571    1.3796    7.0297 H         1 <1>         0.0832 
@<TRIPOS>BOND
       1        1        2 1        
       2        1       17 1        
       3        1       18 1        
       4        1       19 1        
       5        2        3 1        
       6        2       20 1        
       7        2       21 1        
       8        3        4 2        
       9        3        5 2        
      10        3        6 1        
      11        6       11 1        
      12        6        7 1        
      13        7        8 1        
      14        7       22 1        
      15        7       23 1        
      16        8        9 1        
      17        8       24 1        
      18        8       25 1        
      19        9       10 1        
      20        9       12 1        
      21       10       11 1        
      22       10       26 1        
      23       10       27 1        
      24       11       28 1        
      25       11       29 1        
      26       12       13 2        
      27       12       14 2        
      28       12       15 1        
      29       15       16 1        
      30       15       30 1        
      31       15       31 1        
      32       16       32 1        
      33       16       33 1        
      34       16       34 1        
@<TRIPOS>SUBSTRUCTURE
 1 **** 1 TEMP 0 **** **** 0 ROOT

