#        1GCZ_R01_S0001_C0000_L00021_S0001_C0002_G0010_E0001.mol2
#        Tue Jun  6 10:01:59 2017
#        Descriptor:     14    28     8     7     9    15
#        Energy - RMSD - RMSD MassCentre:     -40.0194    999.9999    999.9999
#        Receptor:       1  Surface Point:     1  Conformer:     0
#        Ligand:        21  Surface Point:     1  Conformer:     2
#        BUDE Formal Charge: 0
#        ATOM Count: 34
#        Heavy ATOM Count: 16
@<TRIPOS>MOLECULE
ZINC04900664_0_1GCZ_R01_S0001_C0000_L00021_S0001_C0002_G0010_E0001
 34 34 1 0 0
SMALL
USER_CHARGES
INVALID_CHARGES
@<TRIPOS>ATOM
       1 C1         1.0749    1.7436    9.4341 C.3       1 <1>        -0.1483 
       2 C2        -0.2104    2.5587    9.3235 C.3       1 <1>        -0.6308 
       3 S1        -1.5096    1.5373    8.5855 S.o2      1 <1>         2.6056 
       4 O1        -1.7523    0.4008    9.4188 O.2       1 <1>        -0.9507 
       5 O2        -2.7103    2.3049    8.4660 O.2       1 <1>        -0.9507 
       6 N1        -1.0001    0.9989    7.0003 N.pl3     1 <1>        -1.0001 
       7 C3        -0.1532    1.8620    6.1363 C.3       1 <1>         0.1048 
       8 C4        -0.8694    2.0904    4.7925 C.3       1 <1>         0.1046 
       9 N2        -1.3289    0.7936    4.2747 N.pl3     1 <1>        -1.0001 
      10 C5        -2.1696   -0.0624    5.1239 C.3       1 <1>         0.1047 
      11 C6        -1.4604   -0.2930    6.4712 C.3       1 <1>         0.1046 
      12 S2        -0.7576    0.2152    2.7250 S.o2      1 <1>         2.6056 
      13 O3        -1.6704   -0.7605    2.2152 O.2       1 <1>        -0.9507 
      14 O4         0.5342   -0.3770    2.8849 O.2       1 <1>        -0.9507 
      15 C7        -0.6474    1.6024    1.5677 C.3       1 <1>        -0.6308 
      16 C8        -0.1493    1.0980    0.2164 C.3       1 <1>        -0.1483 
      17 H1         1.3927    1.4324    8.4413 H         1 <1>         0.0728 
      18 H2         0.8944    0.8650   10.0500 H         1 <1>         0.0728 
      19 H3         1.8521    2.3533    9.8900 H         1 <1>         0.0832 
      20 H4        -0.5225    2.8812   10.3147 H         1 <1>         0.1313 
      21 H5        -0.0350    3.4303    8.6964 H         1 <1>         0.1314 
      22 H6         0.7956    1.3557    5.9720 H         1 <1>         0.1079 
      23 H7         0.0526    2.8195    6.6099 H         1 <1>         0.0793 
      24 H8        -1.7458    2.7168    4.9446 H         1 <1>         0.1077 
      25 H9        -0.2078    2.5875    4.0861 H         1 <1>         0.0793 
      26 H10       -3.1087    0.4612    5.2899 H         1 <1>         0.1080 
      27 H11       -2.3824   -1.0148    4.6430 H         1 <1>         0.0793 
      28 H12       -0.5826   -0.9186    6.3225 H         1 <1>         0.0791 
      29 H13       -2.1268   -0.7942    7.1701 H         1 <1>         0.1080 
      30 H14        0.0466    2.3444    1.9569 H         1 <1>         0.1314 
      31 H15       -1.6307    2.0526    1.4475 H         1 <1>         0.1314 
      32 H16       -0.8505    0.3655   -0.1775 H         1 <1>         0.0728 
      33 H17        0.8277    0.6356    0.3403 H         1 <1>         0.0728 
      34 H18       -0.0703    1.9341   -0.4754 H         1 <1>         0.0832 
@<TRIPOS>BOND
       1        1        2 1        
       2        1       17 1        
       3        1       18 1        
       4        1       19 1        
       5        2        3 1        
       6        2       20 1        
       7        2       21 1        
       8        3        4 2        
       9        3        5 2        
      10        3        6 1        
      11        6       11 1        
      12        6        7 1        
      13        7        8 1        
      14        7       22 1        
      15        7       23 1        
      16        8        9 1        
      17        8       24 1        
      18        8       25 1        
      19        9       10 1        
      20        9       12 1        
      21       10       11 1        
      22       10       26 1        
      23       10       27 1        
      24       11       28 1        
      25       11       29 1        
      26       12       13 2        
      27       12       14 2        
      28       12       15 1        
      29       15       16 1        
      30       15       30 1        
      31       15       31 1        
      32       16       32 1        
      33       16       33 1        
      34       16       34 1        
@<TRIPOS>SUBSTRUCTURE
 1 **** 1 TEMP 0 **** **** 0 ROOT

