#        1GCZ_R01_S0001_C0000_L00021_S0001_C0002_G0010_E0001.mol2
#        Tue Jun  6 14:20:32 2017
#        Descriptor:     23    28    18     8     9    14
#        Energy - RMSD - RMSD MassCentre:     -40.3010    999.9999    999.9999
#        Receptor:       1  Surface Point:     1  Conformer:     0
#        Ligand:        21  Surface Point:     1  Conformer:     2
#        BUDE Formal Charge: 0
#        ATOM Count: 34
#        Heavy ATOM Count: 16
@<TRIPOS>MOLECULE
ZINC04900664_0_1GCZ_R01_S0001_C0000_L00021_S0001_C0002_G0010_E0001
 34 34 1 0 0
SMALL
USER_CHARGES
INVALID_CHARGES
@<TRIPOS>ATOM
       1 C1         2.2685    2.4987    7.8415 C.3       1 <1>        -0.1483 
       2 C2         0.8462    3.0502    7.8794 C.3       1 <1>        -0.6308 
       3 S1        -0.3283    1.7093    7.5657 S.o2      1 <1>         2.6056 
       4 O1        -0.1918    0.7103    8.5797 O.2       1 <1>        -0.9507 
       5 O2        -1.6609    2.2276    7.5847 O.2       1 <1>        -0.9507 
       6 N1         0.0002    0.9989    6.0005 N.pl3     1 <1>        -1.0001 
       7 C3         0.4961    1.8308    4.8732 C.3       1 <1>         0.1048 
       8 C4        -0.4704    1.6965    3.6821 C.3       1 <1>         0.1046 
       9 N2        -0.7419    0.2703    3.4514 N.pl3     1 <1>        -1.0001 
      10 C5        -1.2358   -0.5562    4.5621 C.3       1 <1>         0.1047 
      11 C6        -0.2750   -0.4246    5.7583 C.3       1 <1>         0.1046 
      12 S2        -0.3397   -0.4620    1.9137 S.o2      1 <1>         2.6056 
      13 O3        -1.1115   -1.6529    1.7375 O.2       1 <1>        -0.9507 
      14 O4         1.0525   -0.7877    1.8914 O.2       1 <1>        -0.9507 
      15 C7        -0.7098    0.7012    0.5775 C.3       1 <1>        -0.6308 
      16 C8        -0.3591    0.0626   -0.7634 C.3       1 <1>        -0.1483 
      17 H1         2.4677    2.0788    6.8578 H         1 <1>         0.0728 
      18 H2         2.3760    1.7226    8.5965 H         1 <1>         0.0728 
      19 H3         2.9738    3.3021    8.0433 H         1 <1>         0.0832 
      20 H4         0.6499    3.4817    8.8588 H         1 <1>         0.1313 
      21 H5         0.7332    3.8166    7.1155 H         1 <1>         0.1314 
      22 H6         1.4849    1.4736    4.5934 H         1 <1>         0.1079 
      23 H7         0.5834    2.8769    5.1588 H         1 <1>         0.0793 
      24 H8        -1.4154    2.1806    3.9189 H         1 <1>         0.1077 
      25 H9        -0.0528    2.1691    2.7955 H         1 <1>         0.0793 
      26 H10       -2.2184   -0.1801    4.8392 H         1 <1>         0.1080 
      27 H11       -1.3322   -1.5998    4.2701 H         1 <1>         0.0793 
      28 H12        0.6718   -0.9070    5.5244 H         1 <1>         0.0791 
      29 H13       -0.6978   -0.9032    6.6392 H         1 <1>         0.1080 
      30 H14       -0.1226    1.6071    0.7131 H         1 <1>         0.1314 
      31 H15       -1.7691    0.9488    0.5960 H         1 <1>         0.1314 
      32 H16       -0.9559   -0.8361   -0.9034 H         1 <1>         0.0728 
      33 H17        0.6973   -0.1973   -0.7753 H         1 <1>         0.0728 
      34 H18       -0.5691    0.7668   -1.5657 H         1 <1>         0.0832 
@<TRIPOS>BOND
       1        1        2 1        
       2        1       17 1        
       3        1       18 1        
       4        1       19 1        
       5        2        3 1        
       6        2       20 1        
       7        2       21 1        
       8        3        4 2        
       9        3        5 2        
      10        3        6 1        
      11        6       11 1        
      12        6        7 1        
      13        7        8 1        
      14        7       22 1        
      15        7       23 1        
      16        8        9 1        
      17        8       24 1        
      18        8       25 1        
      19        9       10 1        
      20        9       12 1        
      21       10       11 1        
      22       10       26 1        
      23       10       27 1        
      24       11       28 1        
      25       11       29 1        
      26       12       13 2        
      27       12       14 2        
      28       12       15 1        
      29       15       16 1        
      30       15       30 1        
      31       15       31 1        
      32       16       32 1        
      33       16       33 1        
      34       16       34 1        
@<TRIPOS>SUBSTRUCTURE
 1 **** 1 TEMP 0 **** **** 0 ROOT

