#        1GCZ_R01_S0001_C0000_L00021_S0001_C0003_G0010_E0001.mol2
#        Tue Jun  6 10:01:59 2017
#        Descriptor:      2    22    36     9     9    14
#        Energy - RMSD - RMSD MassCentre:     -37.5119    999.9999    999.9999
#        Receptor:       1  Surface Point:     1  Conformer:     0
#        Ligand:        21  Surface Point:     1  Conformer:     3
#        BUDE Formal Charge: 0
#        ATOM Count: 34
#        Heavy ATOM Count: 16
@<TRIPOS>MOLECULE
ZINC04900664_0_1GCZ_R01_S0001_C0000_L00021_S0001_C0003_G0010_E0001
 34 34 1 0 0
SMALL
USER_CHARGES
INVALID_CHARGES
@<TRIPOS>ATOM
       1 C1         1.0002    3.9744    7.4108 C.3       1 <1>        -0.1483 
       2 C2         2.1537    3.0290    7.7331 C.3       1 <1>        -0.6308 
       3 S1         1.5782    1.3167    7.6210 S.o2      1 <1>         2.6056 
       4 O1         2.6592    0.4306    7.9231 O.2       1 <1>        -0.9507 
       5 O2         0.5163    1.1077    8.5557 O.2       1 <1>        -0.9507 
       6 N1         1.0008    0.9991    5.9998 N.pl3     1 <1>        -1.0001 
       7 C3         1.8773    1.1364    4.9691 C.3       1 <1>         0.1048 
       8 C4         1.1466    1.5173    3.6683 C.3       1 <1>         0.1046 
       9 N2         0.1313    0.4944    3.3789 N.pl3     1 <1>        -1.0001 
      10 C5        -0.4548   -0.2708    4.4889 C.3       1 <1>         0.1047 
      11 C6        -0.3876    0.5712    5.7764 C.3       1 <1>         0.1046 
      12 S2        -0.2627    0.0931    1.7217 S.o2      1 <1>         2.6056 
      13 O3        -1.5972   -0.4174    1.6601 O.2       1 <1>        -0.9507 
      14 O4         0.6502   -0.8977    1.2422 O.2       1 <1>        -0.9507 
      15 C7        -0.1359    1.5788    0.6960 C.3       1 <1>        -0.6308 
      16 C8        -0.4794    1.2288   -0.7492 C.3       1 <1>        -0.1483 
      17 H1         0.1976    3.8247    8.1299 H         1 <1>         0.0728 
      18 H2         0.6326    3.7681    6.4077 H         1 <1>         0.0728 
      19 H3         1.3495    5.0035    7.4651 H         1 <1>         0.0832 
      20 H4         2.9622    3.1865    7.0222 H         1 <1>         0.1313 
      21 H5         2.5131    3.2248    8.7412 H         1 <1>         0.1314 
      22 H6         2.3859    0.1826    4.8457 H         1 <1>         0.1079 
      23 H7         2.6256    1.8903    5.2038 H         1 <1>         0.0793 
      24 H8         0.6330    2.4674    3.7996 H         1 <1>         0.1077 
      25 H9         1.8537    1.6172    2.8475 H         1 <1>         0.0793 
      26 H10       -1.4940   -0.4710    4.2366 H         1 <1>         0.1080 
      27 H11        0.0575   -1.2198    4.6328 H         1 <1>         0.0793 
      28 H12       -0.6855   -0.0358    6.6288 H         1 <1>         0.0791 
      29 H13       -1.0602    1.4236    5.7079 H         1 <1>         0.1080 
      30 H14        0.8795    1.9666    0.7443 H         1 <1>         0.1314 
      31 H15       -0.8303    2.3320    1.0623 H         1 <1>         0.1314 
      32 H16       -1.4992    0.8530   -0.7980 H         1 <1>         0.0728 
      33 H17        0.2067    0.4654   -1.1098 H         1 <1>         0.0728 
      34 H18       -0.3903    2.1191   -1.3683 H         1 <1>         0.0832 
@<TRIPOS>BOND
       1        1        2 1        
       2        1       17 1        
       3        1       18 1        
       4        1       19 1        
       5        2        3 1        
       6        2       20 1        
       7        2       21 1        
       8        3        4 2        
       9        3        5 2        
      10        3        6 1        
      11        6       11 1        
      12        6        7 1        
      13        7        8 1        
      14        7       22 1        
      15        7       23 1        
      16        8        9 1        
      17        8       24 1        
      18        8       25 1        
      19        9       10 1        
      20        9       12 1        
      21       10       11 1        
      22       10       26 1        
      23       10       27 1        
      24       11       28 1        
      25       11       29 1        
      26       12       13 2        
      27       12       14 2        
      28       12       15 1        
      29       15       16 1        
      30       15       30 1        
      31       15       31 1        
      32       16       32 1        
      33       16       33 1        
      34       16       34 1        
@<TRIPOS>SUBSTRUCTURE
 1 **** 1 TEMP 0 **** **** 0 ROOT

