#        1GCZ_R01_S0001_C0000_L00021_S0001_C0003_G0010_E0001.mol2
#        Tue Jun  6 14:20:33 2017
#        Descriptor:     33     2     4     8     9    12
#        Energy - RMSD - RMSD MassCentre:     -36.6527    999.9999    999.9999
#        Receptor:       1  Surface Point:     1  Conformer:     0
#        Ligand:        21  Surface Point:     1  Conformer:     3
#        BUDE Formal Charge: 0
#        ATOM Count: 34
#        Heavy ATOM Count: 16
@<TRIPOS>MOLECULE
ZINC04900664_0_1GCZ_R01_S0001_C0000_L00021_S0001_C0003_G0010_E0001
 34 34 1 0 0
SMALL
USER_CHARGES
INVALID_CHARGES
@<TRIPOS>ATOM
       1 C1        -0.5708    1.9363    0.8960 C.3       1 <1>        -0.1483 
       2 C2        -1.4819    0.8730    1.5021 C.3       1 <1>        -0.6308 
       3 S1        -0.5612   -0.0753    2.7386 S.o2      1 <1>         2.6056 
       4 O1        -1.4151   -1.0718    3.3067 O.2       1 <1>        -0.9507 
       5 O2         0.5605   -0.7080    2.1170 O.2       1 <1>        -0.9507 
       6 N1        -0.0006    0.9994    4.0008 N.pl3     1 <1>        -1.0001 
       7 C3        -0.9302    1.6875    4.7162 C.3       1 <1>         0.1048 
       8 C4        -0.3544    3.0170    5.2377 C.3       1 <1>         0.1046 
       9 N2         0.8415    2.7313    6.0434 N.pl3     1 <1>        -1.0001 
      10 C5         1.6245    1.5192    5.7626 C.3       1 <1>         0.1047 
      11 C6         1.4359    1.1245    4.2861 C.3       1 <1>         0.1046 
      12 S2         1.2392    3.7445    7.4136 S.o2      1 <1>         2.6056 
      13 O3         2.6477    3.6875    7.6546 O.2       1 <1>        -0.9507 
      14 O4         0.5377    3.2786    8.5693 O.2       1 <1>        -0.9507 
      15 C7         0.7551    5.4522    7.0602 C.3       1 <1>        -0.6308 
      16 C8         1.1020    6.3359    8.2552 C.3       1 <1>        -0.1483 
      17 H1         0.2758    1.4542    0.4115 H         1 <1>         0.0728 
      18 H2        -0.2117    2.5966    1.6827 H         1 <1>         0.0728 
      19 H3        -1.1281    2.5151    0.1622 H         1 <1>         0.0832 
      20 H4        -2.3356    1.3531    1.9760 H         1 <1>         0.1313 
      21 H5        -1.8305    0.2036    0.7185 H         1 <1>         0.1314 
      22 H6        -1.2295    1.0576    5.5513 H         1 <1>         0.1079 
      23 H7        -1.8107    1.8825    4.1079 H         1 <1>         0.0793 
      24 H8        -0.0493    3.6396    4.3993 H         1 <1>         0.1077 
      25 H9        -1.1017    3.5572    5.8153 H         1 <1>         0.0793 
      26 H10        2.6704    1.7542    5.9477 H         1 <1>         0.1080 
      27 H11        1.3322    0.6968    6.4121 H         1 <1>         0.0793 
      28 H12        1.8928    0.1540    4.1036 H         1 <1>         0.0791 
      29 H13        1.9085    1.8564    3.6343 H         1 <1>         0.1080 
      30 H14       -0.3164    5.4942    6.8763 H         1 <1>         0.1314 
      31 H15        1.2889    5.8052    6.1803 H         1 <1>         0.1314 
      32 H16        2.1752    6.3030    8.4303 H         1 <1>         0.0728 
      33 H17        0.5787    5.9735    9.1375 H         1 <1>         0.0728 
      34 H18        0.7989    7.3602    8.0481 H         1 <1>         0.0832 
@<TRIPOS>BOND
       1        1        2 1        
       2        1       17 1        
       3        1       18 1        
       4        1       19 1        
       5        2        3 1        
       6        2       20 1        
       7        2       21 1        
       8        3        4 2        
       9        3        5 2        
      10        3        6 1        
      11        6       11 1        
      12        6        7 1        
      13        7        8 1        
      14        7       22 1        
      15        7       23 1        
      16        8        9 1        
      17        8       24 1        
      18        8       25 1        
      19        9       10 1        
      20        9       12 1        
      21       10       11 1        
      22       10       26 1        
      23       10       27 1        
      24       11       28 1        
      25       11       29 1        
      26       12       13 2        
      27       12       14 2        
      28       12       15 1        
      29       15       16 1        
      30       15       30 1        
      31       15       31 1        
      32       16       32 1        
      33       16       33 1        
      34       16       34 1        
@<TRIPOS>SUBSTRUCTURE
 1 **** 1 TEMP 0 **** **** 0 ROOT

