#        1GCZ_R01_S0001_C0000_L00021_S0001_C0004_G0010_E0001.mol2
#        Tue Jun  6 10:02:00 2017
#        Descriptor:     33     2     5     8     9    11
#        Energy - RMSD - RMSD MassCentre:     -42.0250    999.9999    999.9999
#        Receptor:       1  Surface Point:     1  Conformer:     0
#        Ligand:        21  Surface Point:     1  Conformer:     4
#        BUDE Formal Charge: 0
#        ATOM Count: 34
#        Heavy ATOM Count: 16
@<TRIPOS>MOLECULE
ZINC04900664_0_1GCZ_R01_S0001_C0000_L00021_S0001_C0004_G0010_E0001
 34 34 1 0 0
SMALL
USER_CHARGES
INVALID_CHARGES
@<TRIPOS>ATOM
       1 C1        -0.7248    1.8230   -0.1040 C.3       1 <1>        -0.1483 
       2 C2        -1.4374    0.6176    0.5021 C.3       1 <1>        -0.6308 
       3 S1        -0.3660   -0.1564    1.7386 S.o2      1 <1>         2.6056 
       4 O1        -1.0338   -1.2861    2.3067 O.2       1 <1>        -0.9507 
       5 O2         0.8486   -0.5847    1.1170 O.2       1 <1>        -0.9507 
       6 N1        -0.0005    0.9993    3.0008 N.pl3     1 <1>        -1.0001 
       7 C3        -0.9933    2.0290    3.4043 C.3       1 <1>         0.1048 
       8 C4        -1.2779    1.8939    4.9116 C.3       1 <1>         0.1046 
       9 N2         0.0023    1.8165    5.6298 N.pl3     1 <1>        -1.0001 
      10 C5         0.9864    0.7976    5.2370 C.3       1 <1>         0.1047 
      11 C6         1.2740    0.9251    3.7295 C.3       1 <1>         0.1046 
      12 S2         0.2857    2.8276    7.0297 S.o2      1 <1>         2.6056 
      13 O3         0.7967    4.0943    6.6061 O.2       1 <1>        -0.9507 
      14 O4         1.2352    2.1934    7.8905 O.2       1 <1>        -0.9507 
      15 C7        -1.2702    3.0714    7.9216 C.3       1 <1>        -0.6308 
      16 C8        -1.8051    1.7203    8.3880 C.3       1 <1>        -0.1483 
      17 H1         0.1927    1.4952   -0.5885 H         1 <1>         0.0728 
      18 H2        -0.4857    2.5356    0.6827 H         1 <1>         0.0728 
      19 H3        -1.3740    2.2962   -0.8378 H         1 <1>         0.0832 
      20 H4        -2.3614    0.9422    0.9760 H         1 <1>         0.1313 
      21 H5        -1.6644   -0.1022   -0.2815 H         1 <1>         0.1314 
      22 H6        -1.9066    1.8650    2.8362 H         1 <1>         0.1079 
      23 H7        -0.6361    3.0333    3.1869 H         1 <1>         0.0793 
      24 H8        -1.8053    2.7769    5.2668 H         1 <1>         0.1077 
      25 H9        -1.8960    1.0203    5.1075 H         1 <1>         0.0793 
      26 H10        1.8975    0.9870    5.8005 H         1 <1>         0.1080 
      27 H11        0.6356   -0.2057    5.4695 H         1 <1>         0.0793 
      28 H12        1.8015    0.0403    3.3796 H         1 <1>         0.0791 
      29 H13        1.8950    1.7969    3.5341 H         1 <1>         0.1080 
      30 H14       -1.9962    3.5412    7.2613 H         1 <1>         0.1314 
      31 H15       -1.0965    3.7109    8.7845 H         1 <1>         0.1314 
      32 H16       -1.0839    1.2571    9.0580 H         1 <1>         0.0728 
      33 H17       -1.9650    1.0768    7.5254 H         1 <1>         0.0728 
      34 H18       -2.7472    1.8655    8.9126 H         1 <1>         0.0832 
@<TRIPOS>BOND
       1        1        2 1        
       2        1       17 1        
       3        1       18 1        
       4        1       19 1        
       5        2        3 1        
       6        2       20 1        
       7        2       21 1        
       8        3        4 2        
       9        3        5 2        
      10        3        6 1        
      11        6       11 1        
      12        6        7 1        
      13        7        8 1        
      14        7       22 1        
      15        7       23 1        
      16        8        9 1        
      17        8       24 1        
      18        8       25 1        
      19        9       10 1        
      20        9       12 1        
      21       10       11 1        
      22       10       26 1        
      23       10       27 1        
      24       11       28 1        
      25       11       29 1        
      26       12       13 2        
      27       12       14 2        
      28       12       15 1        
      29       15       16 1        
      30       15       30 1        
      31       15       31 1        
      32       16       32 1        
      33       16       33 1        
      34       16       34 1        
@<TRIPOS>SUBSTRUCTURE
 1 **** 1 TEMP 0 **** **** 0 ROOT

