#        1GCZ_R01_S0001_C0000_L00021_S0001_C0004_G0010_E0001.mol2
#        Tue Jun  6 14:20:34 2017
#        Descriptor:     26    15    32     8     9    14
#        Energy - RMSD - RMSD MassCentre:     -35.3745    999.9999    999.9999
#        Receptor:       1  Surface Point:     1  Conformer:     0
#        Ligand:        21  Surface Point:     1  Conformer:     4
#        BUDE Formal Charge: 0
#        ATOM Count: 34
#        Heavy ATOM Count: 16
@<TRIPOS>MOLECULE
ZINC04900664_0_1GCZ_R01_S0001_C0000_L00021_S0001_C0004_G0010_E0001
 34 34 1 0 0
SMALL
USER_CHARGES
INVALID_CHARGES
@<TRIPOS>ATOM
       1 C1        -0.1761   -2.0153    7.3094 C.3       1 <1>        -0.1483 
       2 C2         0.9078   -1.7487    6.2691 C.3       1 <1>        -0.6308 
       3 S1         0.3374   -0.4734    5.1183 S.o2      1 <1>         2.6056 
       4 O1         1.3532   -0.2236    4.1433 O.2       1 <1>        -0.9507 
       5 O2        -0.8523   -0.9199    4.4623 O.2       1 <1>        -0.9507 
       6 N1         0.0008    1.0006    5.9994 N.pl3     1 <1>        -1.0001 
       7 C3         0.7950    1.3711    7.1996 C.3       1 <1>         0.1048 
       8 C4         1.4239    2.7596    6.9811 C.3       1 <1>         0.1046 
       9 N2         0.3832    3.6804    6.5015 N.pl3     1 <1>        -1.0001 
      10 C5        -0.4029    3.3202    5.3127 C.3       1 <1>         0.1047 
      11 C6        -1.0329    1.9309    5.5233 C.3       1 <1>         0.1046 
      12 S2         0.1875    5.2500    7.2499 S.o2      1 <1>         2.6056 
      13 O3        -0.6793    5.1330    8.3813 O.2       1 <1>        -0.9507 
      14 O4        -0.3810    6.1603    6.3050 O.2       1 <1>        -0.9507 
      15 C7         1.8022    5.8667    7.7871 C.3       1 <1>        -0.6308 
      16 C8         2.7203    6.0076    6.5763 C.3       1 <1>        -0.1483 
      17 H1        -1.0770   -2.3676    6.8115 H         1 <1>         0.0728 
      18 H2        -0.3947   -1.0957    7.8483 H         1 <1>         0.0728 
      19 H3         0.1721   -2.7723    8.0091 H         1 <1>         0.0832 
      20 H4         1.8134   -1.4082    6.7668 H         1 <1>         0.1313 
      21 H5         1.1175   -2.6642    5.7199 H         1 <1>         0.1314 
      22 H6         1.5755    0.6257    7.3371 H         1 <1>         0.1079 
      23 H7         0.1790    1.3845    8.0962 H         1 <1>         0.0793 
      24 H8         1.7995    3.1461    7.9263 H         1 <1>         0.1077 
      25 H9         2.2529    2.6980    6.2792 H         1 <1>         0.0793 
      26 H10       -1.1881    4.0648    5.2006 H         1 <1>         0.1080 
      27 H11        0.2102    3.3229    4.4138 H         1 <1>         0.0793 
      28 H12       -1.4071    1.5493    4.5757 H         1 <1>         0.0791 
      29 H13       -1.8642    1.9933    6.2225 H         1 <1>         0.1080 
      30 H14        2.2398    5.1662    8.4954 H         1 <1>         0.1314 
      31 H15        1.6788    6.8366    8.2643 H         1 <1>         0.1314 
      32 H16        2.2878    6.7176    5.8746 H         1 <1>         0.0728 
      33 H17        2.8316    5.0398    6.0917 H         1 <1>         0.0728 
      34 H18        3.6951    6.3656    6.9009 H         1 <1>         0.0832 
@<TRIPOS>BOND
       1        1        2 1        
       2        1       17 1        
       3        1       18 1        
       4        1       19 1        
       5        2        3 1        
       6        2       20 1        
       7        2       21 1        
       8        3        4 2        
       9        3        5 2        
      10        3        6 1        
      11        6       11 1        
      12        6        7 1        
      13        7        8 1        
      14        7       22 1        
      15        7       23 1        
      16        8        9 1        
      17        8       24 1        
      18        8       25 1        
      19        9       10 1        
      20        9       12 1        
      21       10       11 1        
      22       10       26 1        
      23       10       27 1        
      24       11       28 1        
      25       11       29 1        
      26       12       13 2        
      27       12       14 2        
      28       12       15 1        
      29       15       16 1        
      30       15       30 1        
      31       15       31 1        
      32       16       32 1        
      33       16       33 1        
      34       16       34 1        
@<TRIPOS>SUBSTRUCTURE
 1 **** 1 TEMP 0 **** **** 0 ROOT

