#        1GCZ_R01_S0001_C0000_L00003_S0001_C0042_G0010_E0001.mol2
#        Tue Jun  6 09:55:11 2017
#        Descriptor:     14    22     9    15    10    12
#        Energy - RMSD - RMSD MassCentre:     -68.0176    999.9999    999.9999
#        Receptor:       1  Surface Point:     1  Conformer:     0
#        Ligand:         3  Surface Point:     1  Conformer:    42
#        BUDE Formal Charge: 0
#        ATOM Count: 58
#        Heavy ATOM Count: 30
@<TRIPOS>MOLECULE
ZINC61580633_1GCZ_R01_S0001_C0000_L00003_S0001_C0042_G0010_E0001
 58 59 0 0 0
SMALL
USER_CHARGES
@<TRIPOS>ATOM
       1 C1        14.2688    6.0165    1.3058 C.3       1 <0>        -0.1532 
       2 C2        14.8748    4.6160    1.3164 C.3       1 <0>        -0.1224 
       3 C3        14.2113    3.7834    2.4125 C.3       1 <0>        -0.1198 
       4 C4        14.4588    4.4399    3.7699 C.3       1 <0>         0.0610 
       5 O1        13.8380    3.6607    4.7957 O.3       1 <0>        -0.3878 
       6 C5        12.4230    3.5653    4.6122 C.3       1 <0>         0.0487 
       7 C6        11.8202    2.7236    5.7359 C.3       1 <0>         0.1244 
       8 N1        10.3657    2.6256    5.5473 N.am      1 <0>        -0.7216 
       9 C7         9.8719    1.8765    4.5654 C.2       1 <0>         0.5161 
      10 O2        10.6314    1.2657    3.8153 O.2       1 <0>        -0.5151 
      11 C8         8.3778    1.7758    4.3716 C.3       1 <0>         0.0490 
      12 O3         7.8070    1.0323    5.4515 O.3       1 <0>        -0.3194 
      13 C9         6.4711    0.8375    5.4499 C.2       1 <0>         0.5417 
      14 O4         5.7890    1.2901    4.5453 O.2       1 <0>        -0.5337 
      15 C10        5.8337    0.0743    6.5459 C.2       1 <0>        -0.2559 
      16 C11        6.5666   -0.5283    7.6817 C.2       1 <0>        -0.0791 
      17 C12        5.7572   -1.1745    8.5240 C.2       1 <0>        -0.2585 
      18 S1         4.0599   -1.1065    8.0271 S.3       1 <0>         0.3028 
      19 C13        4.5149   -0.1554    6.6055 C.2       1 <0>         0.0893 
      20 N2         3.6504    0.3034    5.6468 N.am      1 <0>        -0.6099 
      21 C14        2.3486    0.0506    5.7481 C.2       1 <0>         0.5551 
      22 O5         1.9205   -0.5956    6.7031 O.2       1 <0>        -0.4939 
      23 C15        1.4161    0.5470    4.7117 C.ar      1 <0>        -0.1466 
      24 C16        0.0544    0.2553    4.8562 C.ar      1 <0>        -0.0772 
      25 C17       -0.8661    0.6339    3.8718 C.ar      1 <0>        -0.1241 
      26 C18       -0.4401    1.3030    2.7185 C.ar      1 <0>        -0.0446 
      27 C19        0.9125    1.6430    2.5963 C.ar      1 <0>        -0.1261 
      28 C20        1.8253    1.2882    3.5967 C.ar      1 <0>        -0.0460 
      29 C21       -1.4391    1.6478    1.6398 C.3       1 <0>        -0.0928 
      30 C22       -1.5160    0.5026    0.6343 C.3       1 <0>        -0.1485 
      31 H1        14.4453    6.4946    2.2669 H         1 <0>         0.0567 
      32 H2        13.1981    5.9463    1.1262 H         1 <0>         0.0554 
      33 H3        14.7317    6.6052    0.5166 H         1 <0>         0.0557 
      34 H4        14.7098    4.1414    0.3514 H         1 <0>         0.0632 
      35 H5        15.9433    4.6838    1.5100 H         1 <0>         0.0635 
      36 H6        13.1408    3.7265    2.2278 H         1 <0>         0.0711 
      37 H7        14.6338    2.7807    2.4129 H         1 <0>         0.0704 
      38 H8        15.5294    4.4967    3.9563 H         1 <0>         0.0498 
      39 H9        14.0362    5.4425    3.7710 H         1 <0>         0.0505 
      40 H10       12.2118    3.0949    3.6542 H         1 <0>         0.0584 
      41 H11       11.9862    4.5616    4.6318 H         1 <0>         0.0702 
      42 H12       12.0301    3.1935    6.6944 H         1 <0>         0.0872 
      43 H13       12.2557    1.7268    5.7168 H         1 <0>         0.0805 
      44 H14        9.7410    3.1267    6.1626 H         1 <0>         0.4058 
      45 H15        7.9459    2.7741    4.3514 H         1 <0>         0.1008 
      46 H16        8.1667    1.2694    3.4321 H         1 <0>         0.0999 
      47 H17        7.6356   -0.4328    7.8020 H         1 <0>         0.1557 
      48 H18        6.1142   -1.6688    9.4154 H         1 <0>         0.1929 
      49 H19        4.0019    0.8340    4.8626 H         1 <0>         0.4317 
      50 H20       -0.2914   -0.2714    5.7333 H         1 <0>         0.1287 
      51 H21       -1.9149    0.4089    3.9971 H         1 <0>         0.1326 
      52 H22        1.2405    2.1857    1.7220 H         1 <0>         0.1342 
      53 H23        2.8431    1.6285    3.4761 H         1 <0>         0.1410 
      54 H24       -1.1240    2.5568    1.1318 H         1 <0>         0.0777 
      55 H25       -2.4177    1.8033    2.0891 H         1 <0>         0.0771 
      56 H26       -1.8432   -0.4028    1.1412 H         1 <0>         0.0623 
      57 H27       -0.5337    0.3388    0.1962 H         1 <0>         0.0572 
      58 H28       -2.2259    0.7567   -0.1500 H         1 <0>         0.0578 
@<TRIPOS>BOND
       1        1        2 1        
       2        1       31 1        
       3        1       32 1        
       4        1       33 1        
       5        2        3 1        
       6        2       34 1        
       7        2       35 1        
       8        3        4 1        
       9        3       36 1        
      10        3       37 1        
      11        4        5 1        
      12        4       38 1        
      13        4       39 1        
      14        5        6 1        
      15        6        7 1        
      16        6       40 1        
      17        6       41 1        
      18        7        8 1        
      19        7       42 1        
      20        7       43 1        
      21        8        9 am       
      22        8       44 1        
      23        9       10 2        
      24        9       11 1        
      25       11       12 1        
      26       11       45 1        
      27       11       46 1        
      28       12       13 1        
      29       13       14 2        
      30       13       15 1        
      31       15       19 2        
      32       15       16 1        
      33       16       17 2        
      34       16       47 1        
      35       17       18 1        
      36       17       48 1        
      37       18       19 1        
      38       19       20 1        
      39       20       21 am       
      40       20       49 1        
      41       21       22 2        
      42       21       23 1        
      43       23       28 ar       
      44       23       24 ar       
      45       24       25 ar       
      46       24       50 1        
      47       25       26 ar       
      48       25       51 1        
      49       26       27 ar       
      50       26       29 1        
      51       27       28 ar       
      52       27       52 1        
      53       28       53 1        
      54       29       30 1        
      55       29       54 1        
      56       29       55 1        
      57       30       56 1        
      58       30       57 1        
      59       30       58 1        

