#        1GCZ_R01_S0001_C0000_L00021_S0001_C0005_G0010_E0001.mol2
#        Tue Jun  6 10:02:00 2017
#        Descriptor:      5    25    32     8    10    14
#        Energy - RMSD - RMSD MassCentre:     -42.4680    999.9999    999.9999
#        Receptor:       1  Surface Point:     1  Conformer:     0
#        Ligand:        21  Surface Point:     1  Conformer:     5
#        BUDE Formal Charge: 0
#        ATOM Count: 34
#        Heavy ATOM Count: 16
@<TRIPOS>MOLECULE
ZINC04900664_0_1GCZ_R01_S0001_C0000_L00021_S0001_C0005_G0010_E0001
 34 34 1 0 0
SMALL
USER_CHARGES
INVALID_CHARGES
@<TRIPOS>ATOM
       1 C1         2.5659    3.3452    9.0927 C.3       1 <1>        -0.1483 
       2 C2         2.2062    2.8251    7.7039 C.3       1 <1>        -0.6308 
       3 S1         0.4165    2.5764    7.5989 S.o2      1 <1>         2.6056 
       4 O1         0.0122    1.6115    8.5738 O.2       1 <1>        -0.9507 
       5 O2        -0.2531    3.8149    7.8490 O.2       1 <1>        -0.9507 
       6 N1        -0.0005    1.9990    6.0004 N.pl3     1 <1>        -1.0001 
       7 C3         0.6968    2.4883    4.9404 C.3       1 <1>         0.1048 
       8 C4         0.7441    1.4661    3.7897 C.3       1 <1>         0.1046 
       9 N2        -0.6324    1.1143    3.4124 N.pl3     1 <1>        -1.0001 
      10 C5        -1.7006    1.2119    4.4177 C.3       1 <1>         0.1047 
      11 C6        -1.0934    1.0325    5.8215 C.3       1 <1>         0.1046 
      12 S2        -0.9651    0.4467    1.8293 S.o2      1 <1>         2.6056 
      13 O3        -2.3550    0.6007    1.5304 O.2       1 <1>        -0.9507 
      14 O4        -0.6251   -0.9423    1.8177 O.2       1 <1>        -0.9507 
      15 C7         0.0205    1.3205    0.5881 C.3       1 <1>        -0.6308 
      16 C8        -0.2696    0.7383   -0.7925 C.3       1 <1>        -0.1483 
      17 H1         2.2672    2.6146    9.8415 H         1 <1>         0.0728 
      18 H2         2.0464    4.2839    9.2735 H         1 <1>         0.0728 
      19 H3         3.6402    3.5074    9.1515 H         1 <1>         0.0832 
      20 H4         2.5158    3.5493    6.9533 H         1 <1>         0.1313 
      21 H5         2.7141    1.8793    7.5275 H         1 <1>         0.1314 
      22 H6         1.7047    2.7065    5.2870 H         1 <1>         0.1079 
      23 H7         0.2524    3.4168    4.5883 H         1 <1>         0.0793 
      24 H8         1.2229    1.9126    2.9207 H         1 <1>         0.1077 
      25 H9         1.3121    0.5857    4.0830 H         1 <1>         0.0793 
      26 H10       -2.1407    2.2033    4.3336 H         1 <1>         0.1080 
      27 H11       -2.4779    0.4703    4.2465 H         1 <1>         0.0793 
      28 H12       -0.6685    0.0352    5.9138 H         1 <1>         0.0791 
      29 H13       -1.8596    1.1530    6.5846 H         1 <1>         0.1080 
      30 H14        1.0776    1.2033    0.8170 H         1 <1>         0.1314 
      31 H15       -0.2386    2.3772    0.5985 H         1 <1>         0.1314 
      32 H16       -1.3244    0.8673   -1.0255 H         1 <1>         0.0728 
      33 H17       -0.0235   -0.3215   -0.7974 H         1 <1>         0.0728 
      34 H18        0.3328    1.2546   -1.5370 H         1 <1>         0.0832 
@<TRIPOS>BOND
       1        1        2 1        
       2        1       17 1        
       3        1       18 1        
       4        1       19 1        
       5        2        3 1        
       6        2       20 1        
       7        2       21 1        
       8        3        4 2        
       9        3        5 2        
      10        3        6 1        
      11        6       11 1        
      12        6        7 1        
      13        7        8 1        
      14        7       22 1        
      15        7       23 1        
      16        8        9 1        
      17        8       24 1        
      18        8       25 1        
      19        9       10 1        
      20        9       12 1        
      21       10       11 1        
      22       10       26 1        
      23       10       27 1        
      24       11       28 1        
      25       11       29 1        
      26       12       13 2        
      27       12       14 2        
      28       12       15 1        
      29       15       16 1        
      30       15       30 1        
      31       15       31 1        
      32       16       32 1        
      33       16       33 1        
      34       16       34 1        
@<TRIPOS>SUBSTRUCTURE
 1 **** 1 TEMP 0 **** **** 0 ROOT

