#        1GCZ_R01_S0001_C0000_L00021_S0001_C0006_G0010_E0001.mol2
#        Tue Jun  6 10:02:01 2017
#        Descriptor:     15    12    20     7     9    12
#        Energy - RMSD - RMSD MassCentre:     -40.5703    999.9999    999.9999
#        Receptor:       1  Surface Point:     1  Conformer:     0
#        Ligand:        21  Surface Point:     1  Conformer:     6
#        BUDE Formal Charge: 0
#        ATOM Count: 34
#        Heavy ATOM Count: 16
@<TRIPOS>MOLECULE
ZINC04900664_0_1GCZ_R01_S0001_C0000_L00021_S0001_C0006_G0010_E0001
 34 34 1 0 0
SMALL
USER_CHARGES
INVALID_CHARGES
@<TRIPOS>ATOM
       1 C1        -0.5427    1.6373   -0.1645 C.3       1 <1>        -0.1483 
       2 C2        -0.6597    2.0340    1.3043 C.3       1 <1>        -0.6308 
       3 S1        -0.8868    0.5485    2.3131 S.o2      1 <1>         2.6056 
       4 O1        -2.0885   -0.1171    1.9161 O.2       1 <1>        -0.9507 
       5 O2         0.2269   -0.3292    2.1278 O.2       1 <1>        -0.9507 
       6 N1        -1.0011    0.9995    4.0001 N.pl3     1 <1>        -1.0001 
       7 C3        -0.2296    2.0287    4.4418 C.3       1 <1>         0.1048 
       8 C4        -0.8912    2.7440    5.6343 C.3       1 <1>         0.1046 
       9 N2        -1.1376    1.7605    6.6987 N.pl3     1 <1>        -1.0001 
      10 C5        -1.3336    0.3482    6.3411 C.3       1 <1>         0.1047 
      11 C6        -1.8903    0.2607    4.9079 C.3       1 <1>         0.1046 
      12 S2        -1.3420    2.2912    8.3537 S.o2      1 <1>         2.6056 
      13 O3        -1.1245    1.1881    9.2374 O.2       1 <1>        -0.9507 
      14 O4        -2.6697    2.7916    8.5323 O.2       1 <1>        -0.9507 
      15 C7        -0.1481    3.6018    8.7177 C.3       1 <1>        -0.6308 
      16 C8         1.2683    3.0610    8.5435 C.3       1 <1>        -0.1483 
      17 H1        -1.4556    1.1349   -0.4776 H         1 <1>         0.0728 
      18 H2         0.3036    0.9656   -0.2917 H         1 <1>         0.0728 
      19 H3        -0.3929    2.5291   -0.7695 H         1 <1>         0.0832 
      20 H4         0.2476    2.5477    1.6154 H         1 <1>         0.1313 
      21 H5        -1.5143    2.6946    1.4352 H         1 <1>         0.1314 
      22 H6        -0.1066    2.7221    3.6126 H         1 <1>         0.1079 
      23 H7         0.7557    1.6691    4.7304 H         1 <1>         0.0793 
      24 H8        -0.2161    3.4998    6.0302 H         1 <1>         0.1077 
      25 H9        -1.8129    3.2320    5.3243 H         1 <1>         0.0793 
      26 H10       -0.3622   -0.1397    6.3865 H         1 <1>         0.1080 
      27 H11       -2.0059   -0.1495    7.0367 H         1 <1>         0.0793 
      28 H12       -2.8697    0.7322    4.8643 H         1 <1>         0.0791 
      29 H13       -1.9941   -0.7789    4.6039 H         1 <1>         0.1080 
      30 H14       -0.2840    3.9409    9.7424 H         1 <1>         0.1314 
      31 H15       -0.3054    4.4345    8.0355 H         1 <1>         0.1314 
      32 H16        1.4070    2.7337    7.5153 H         1 <1>         0.0728 
      33 H17        1.4198    2.2193    9.2162 H         1 <1>         0.0728 
      34 H18        1.9861    3.8451    8.7753 H         1 <1>         0.0832 
@<TRIPOS>BOND
       1        1        2 1        
       2        1       17 1        
       3        1       18 1        
       4        1       19 1        
       5        2        3 1        
       6        2       20 1        
       7        2       21 1        
       8        3        4 2        
       9        3        5 2        
      10        3        6 1        
      11        6       11 1        
      12        6        7 1        
      13        7        8 1        
      14        7       22 1        
      15        7       23 1        
      16        8        9 1        
      17        8       24 1        
      18        8       25 1        
      19        9       10 1        
      20        9       12 1        
      21       10       11 1        
      22       10       26 1        
      23       10       27 1        
      24       11       28 1        
      25       11       29 1        
      26       12       13 2        
      27       12       14 2        
      28       12       15 1        
      29       15       16 1        
      30       15       30 1        
      31       15       31 1        
      32       16       32 1        
      33       16       33 1        
      34       16       34 1        
@<TRIPOS>SUBSTRUCTURE
 1 **** 1 TEMP 0 **** **** 0 ROOT

