#        1GCZ_R01_S0001_C0000_L00021_S0001_C0006_G0010_E0001.mol2
#        Tue Jun  6 14:20:37 2017
#        Descriptor:     32     5     3     7     9    12
#        Energy - RMSD - RMSD MassCentre:     -41.6144    999.9999    999.9999
#        Receptor:       1  Surface Point:     1  Conformer:     0
#        Ligand:        21  Surface Point:     1  Conformer:     6
#        BUDE Formal Charge: 0
#        ATOM Count: 34
#        Heavy ATOM Count: 16
@<TRIPOS>MOLECULE
ZINC04900664_0_1GCZ_R01_S0001_C0000_L00021_S0001_C0006_G0010_E0001
 34 34 1 0 0
SMALL
USER_CHARGES
INVALID_CHARGES
@<TRIPOS>ATOM
       1 C1        -1.0379    0.9513   -0.2373 C.3       1 <1>        -0.1483 
       2 C2        -1.0054    1.5822    1.1517 C.3       1 <1>        -0.6308 
       3 S1        -1.0585    0.2790    2.4066 S.o2      1 <1>         2.6056 
       4 O1        -2.2695   -0.4683    2.2656 O.2       1 <1>        -0.9507 
       5 O2         0.0617   -0.5935    2.2363 O.2       1 <1>        -0.9507 
       6 N1        -1.0011    0.9995    4.0003 N.pl3     1 <1>        -1.0001 
       7 C3        -0.2268    2.1035    4.1768 C.3       1 <1>         0.1048 
       8 C4        -0.7787    2.9915    5.3073 C.3       1 <1>         0.1046 
       9 N2        -0.8648    2.1921    6.5379 N.pl3     1 <1>        -1.0001 
      10 C5        -1.0429    0.7363    6.4383 C.3       1 <1>         0.1047 
      11 C6        -1.7527    0.4019    5.1132 C.3       1 <1>         0.1046 
      12 S2        -0.9036    2.9840    8.0979 S.o2      1 <1>         2.6056 
      13 O3        -0.5445    2.0466    9.1165 O.2       1 <1>        -0.9507 
      14 O4        -2.2218    3.4788    8.3476 O.2       1 <1>        -0.9507 
      15 C7         0.2701    4.3616    8.1034 C.3       1 <1>        -0.6308 
      16 C8         1.6787    3.8296    7.8541 C.3       1 <1>        -0.1483 
      17 H1        -1.9593    0.3849   -0.3562 H         1 <1>         0.0728 
      18 H2        -0.1850    0.2858   -0.3526 H         1 <1>         0.0728 
      19 H3        -0.9926    1.7340   -0.9916 H         1 <1>         0.0832 
      20 H4        -0.0903    2.1593    1.2674 H         1 <1>         0.1313 
      21 H5        -1.8657    2.2371    1.2734 H         1 <1>         0.1314 
      22 H6        -0.2253    2.6531    3.2378 H         1 <1>         0.1079 
      23 H7         0.7983    1.8174    4.4022 H         1 <1>         0.0793 
      24 H8        -0.0943    3.8164    5.4943 H         1 <1>         0.1077 
      25 H9        -1.7481    3.4022    5.0327 H         1 <1>         0.0793 
      26 H10       -0.0538    0.2832    6.4479 H         1 <1>         0.1080 
      27 H11       -1.6126    0.3461    7.2790 H         1 <1>         0.0793 
      28 H12       -2.7489    0.8390    5.1090 H         1 <1>         0.0791 
      29 H13       -1.8482   -0.6755    4.9952 H         1 <1>         0.1080 
      30 H14        0.2364    4.8622    9.0687 H         1 <1>         0.1314 
      31 H15        0.0042    5.0670    7.3189 H         1 <1>         0.1314 
      32 H16        1.7143    3.3402    6.8831 H         1 <1>         0.0728 
      33 H17        1.9381    3.1138    8.6314 H         1 <1>         0.0728 
      34 H18        2.3860    4.6562    7.8707 H         1 <1>         0.0832 
@<TRIPOS>BOND
       1        1        2 1        
       2        1       17 1        
       3        1       18 1        
       4        1       19 1        
       5        2        3 1        
       6        2       20 1        
       7        2       21 1        
       8        3        4 2        
       9        3        5 2        
      10        3        6 1        
      11        6       11 1        
      12        6        7 1        
      13        7        8 1        
      14        7       22 1        
      15        7       23 1        
      16        8        9 1        
      17        8       24 1        
      18        8       25 1        
      19        9       10 1        
      20        9       12 1        
      21       10       11 1        
      22       10       26 1        
      23       10       27 1        
      24       11       28 1        
      25       11       29 1        
      26       12       13 2        
      27       12       14 2        
      28       12       15 1        
      29       15       16 1        
      30       15       30 1        
      31       15       31 1        
      32       16       32 1        
      33       16       33 1        
      34       16       34 1        
@<TRIPOS>SUBSTRUCTURE
 1 **** 1 TEMP 0 **** **** 0 ROOT

