#        1GCZ_R01_S0001_C0000_L00022_S0001_C0000_G0010_E0001.mol2
#        Tue Jun  6 14:20:38 2017
#        Descriptor:      4    14     6    10    11    15
#        Energy - RMSD - RMSD MassCentre:     -37.6266    999.9999    999.9999
#        Receptor:       1  Surface Point:     1  Conformer:     0
#        Ligand:        22  Surface Point:     1  Conformer:     0
#        BUDE Formal Charge: 0
#        ATOM Count: 24
#        Heavy ATOM Count: 16
@<TRIPOS>MOLECULE
ZINC04389476_0_1GCZ_R01_S0001_C0000_L00022_S0001_C0000_G0010_E0001
 24 24 1 0 0
SMALL
USER_CHARGES
INVALID_CHARGES
@<TRIPOS>ATOM
       1 C1         0.4735    5.2650    8.3794 C.3       1 <1>        -0.6382 
       2 S1        -0.1014    3.9677    7.2559 S.o2      1 <1>         2.5018 
       3 O1        -1.3469    3.4460    7.7264 O.2       1 <1>        -0.9019 
       4 O2        -0.2767    4.5136    5.9459 O.2       1 <1>        -0.9041 
       5 C2         1.1445    2.6151    7.1938 C.2       1 <1>        -0.4511 
       6 C3         1.0403    1.3775    6.3891 C.2       1 <1>        -0.0263 
       7 C4         2.1612    0.6727    6.5949 C.2       1 <1>        -0.7363 
       8 S2         3.2760    1.4674    7.7167 S.3       1 <1>         0.4679 
       9 N1         2.2183    2.6983    7.8684 N.2       1 <1>        -0.3082 
      10 S3         2.5484   -0.9547    5.8286 S.o2      1 <1>         2.5123 
      11 O3         2.5829   -0.8146    4.4059 O.2       1 <1>        -0.9117 
      12 O4         1.5414   -1.9039    6.1890 O.2       1 <1>        -0.8963 
      13 C5         4.1603   -1.5313    6.4162 C.3       1 <1>        -0.6438 
      14 C6        -0.0705    0.9569    5.5060 C.2       1 <1>         0.5713 
      15 O5        -0.0016   -0.1098    4.8974 O.2       1 <1>        -0.4923 
      16 N2        -1.1423    1.7326    5.3712 N.am      1 <1>        -0.8177 
      17 H1         1.4149    5.6696    8.0136 H         1 <1>         0.1384 
      18 H2         0.6199    4.8453    9.3724 H         1 <1>         0.1477 
      19 H3        -0.2693    6.0585    8.4264 H         1 <1>         0.1434 
      20 H4         4.9236   -0.8023    6.1523 H         1 <1>         0.1478 
      21 H5         4.3944   -2.4869    5.9517 H         1 <1>         0.1368 
      22 H6         4.1300   -1.6505    7.4973 H         1 <1>         0.1390 
      23 H7        -1.1978    2.6082    5.8714 H         1 <1>         0.4024 
      24 H8        -1.9003    1.4456    4.7685 H         1 <1>         0.4191 
@<TRIPOS>BOND
       1        1        2 1        
       2        1       17 1        
       3        1       18 1        
       4        1       19 1        
       5        2        3 2        
       6        2        4 2        
       7        2        5 1        
       8        5        9 2        
       9        5        6 1        
      10        6        7 2        
      11        6       14 1        
      12        7        8 1        
      13        7       10 1        
      14        8        9 1        
      15       10       11 2        
      16       10       12 2        
      17       10       13 1        
      18       13       20 1        
      19       13       21 1        
      20       13       22 1        
      21       14       15 2        
      22       14       16 am       
      23       16       23 1        
      24       16       24 1        
@<TRIPOS>SUBSTRUCTURE
 1 **** 1 TEMP 0 **** **** 0 ROOT

