#        1GCZ_R01_S0001_C0000_L00022_S0001_C0001_G0010_E0001.mol2
#        Tue Jun  6 10:02:02 2017
#        Descriptor:     13    26    33    14     9    14
#        Energy - RMSD - RMSD MassCentre:     -36.9340    999.9999    999.9999
#        Receptor:       1  Surface Point:     1  Conformer:     0
#        Ligand:        22  Surface Point:     1  Conformer:     1
#        BUDE Formal Charge: 0
#        ATOM Count: 24
#        Heavy ATOM Count: 16
@<TRIPOS>MOLECULE
ZINC04389476_0_1GCZ_R01_S0001_C0000_L00022_S0001_C0001_G0010_E0001
 24 24 1 0 0
SMALL
USER_CHARGES
INVALID_CHARGES
@<TRIPOS>ATOM
       1 C1         9.0115    1.3709    5.6046 C.3       1 <1>        -0.6382 
       2 S1         7.9452   -0.0545    5.2775 S.o2      1 <1>         2.5018 
       3 O1         8.3083   -0.6456    4.0270 O.2       1 <1>        -0.9019 
       4 O2         8.1005   -1.0171    6.3236 O.2       1 <1>        -0.9041 
       5 C2         6.1909    0.4963    5.2079 C.2       1 <1>        -0.4511 
       6 C3         5.0190   -0.3731    4.9612 C.2       1 <1>        -0.0263 
       7 C4         3.9277    0.4019    5.0231 C.2       1 <1>        -0.7363 
       8 S2         4.3083    2.0990    5.3513 S.3       1 <1>         0.4679 
       9 N1         5.8924    1.7174    5.3945 N.2       1 <1>        -0.3082 
      10 S3         2.1975   -0.1793    4.7905 S.o2      1 <1>         2.5123 
      11 O3         1.8849   -1.1544    5.7886 O.2       1 <1>        -0.9117 
      12 O4         2.0610   -0.7655    3.4933 O.2       1 <1>        -0.8963 
      13 C5         1.0632    1.2229    4.9423 C.3       1 <1>        -0.6438 
      14 C6         5.0057   -1.8292    4.6960 C.2       1 <1>         0.5713 
      15 O5         3.9374   -2.4108    4.5132 O.2       1 <1>        -0.4923 
      16 N2         6.1488   -2.5076    4.6552 N.am      1 <1>        -0.8177 
      17 H1         8.7425    1.8121    6.5620 H         1 <1>         0.1384 
      18 H2         8.8820    2.1085    4.8154 H         1 <1>         0.1477 
      19 H3        10.0498    1.0473    5.6325 H         1 <1>         0.1434 
      20 H4         1.1770    1.6757    5.9250 H         1 <1>         0.1478 
      21 H5         0.0396    0.8756    4.8185 H         1 <1>         0.1368 
      22 H6         1.2926    1.9589    4.1744 H         1 <1>         0.1390 
      23 H7         7.0254   -2.0289    4.8054 H         1 <1>         0.4024 
      24 H8         6.1398   -3.5012    4.4743 H         1 <1>         0.4191 
@<TRIPOS>BOND
       1        1        2 1        
       2        1       17 1        
       3        1       18 1        
       4        1       19 1        
       5        2        3 2        
       6        2        4 2        
       7        2        5 1        
       8        5        9 2        
       9        5        6 1        
      10        6        7 2        
      11        6       14 1        
      12        7        8 1        
      13        7       10 1        
      14        8        9 1        
      15       10       11 2        
      16       10       12 2        
      17       10       13 1        
      18       13       20 1        
      19       13       21 1        
      20       13       22 1        
      21       14       15 2        
      22       14       16 am       
      23       16       23 1        
      24       16       24 1        
@<TRIPOS>SUBSTRUCTURE
 1 **** 1 TEMP 0 **** **** 0 ROOT

