#        1GCZ_R01_S0001_C0000_L00022_S0001_C0002_G0010_E0001.mol2
#        Tue Jun  6 10:02:02 2017
#        Descriptor:     11    18    36    10     3    15
#        Energy - RMSD - RMSD MassCentre:     -31.7129    999.9999    999.9999
#        Receptor:       1  Surface Point:     1  Conformer:     0
#        Ligand:        22  Surface Point:     1  Conformer:     2
#        BUDE Formal Charge: 0
#        ATOM Count: 24
#        Heavy ATOM Count: 16
@<TRIPOS>MOLECULE
ZINC04389476_0_1GCZ_R01_S0001_C0000_L00022_S0001_C0002_G0010_E0001
 24 24 1 0 0
SMALL
USER_CHARGES
INVALID_CHARGES
@<TRIPOS>ATOM
       1 C1         1.4017   -1.9468    6.2306 C.3       1 <1>        -0.6382 
       2 S1         0.1812   -2.9394    7.1255 S.o2      1 <1>         2.5018 
       3 O1         0.0193   -2.4191    8.4476 O.2       1 <1>        -0.9019 
       4 O2        -1.0711   -2.8913    6.4368 O.2       1 <1>        -0.9041 
       5 C2         0.7610   -4.6830    7.2206 C.2       1 <1>        -0.4511 
       6 C3         0.0425   -5.8006    7.8727 C.2       1 <1>        -0.0263 
       7 C4         0.7782   -6.9061    7.6931 C.2       1 <1>        -0.7363 
       8 S2         2.2695   -6.5995    6.7905 S.3       1 <1>         0.4679 
       9 N1         1.8618   -5.0249    6.6856 N.2       1 <1>        -0.3082 
      10 S3         0.3394   -8.5850    8.3048 S.o2      1 <1>         2.5123 
      11 O3         1.3600   -9.5117    7.9248 O.2       1 <1>        -0.9117 
      12 O4        -0.9077   -8.9903    7.7343 O.2       1 <1>        -0.8963 
      13 C5         0.1966   -8.5529   10.1088 C.3       1 <1>        -0.6438 
      14 C6        -1.2486   -5.7546    8.5946 C.2       1 <1>         0.5713 
      15 O5        -1.7177   -6.7823    9.0811 O.2       1 <1>        -0.4923 
      16 N2        -1.9009   -4.6021    8.7169 N.am      1 <1>        -0.8177 
      17 H1         1.5147   -2.3361    5.2209 H         1 <1>         0.1384 
      18 H2         2.3575   -1.9956    6.7479 H         1 <1>         0.1477 
      19 H3         1.0652   -0.9132    6.1859 H         1 <1>         0.1434 
      20 H4         1.1422   -8.2324   10.5411 H         1 <1>         0.1478 
      21 H5        -0.0491   -9.5492   10.4704 H         1 <1>         0.1368 
      22 H6        -0.5890   -7.8576   10.3975 H         1 <1>         0.1390 
      23 H7        -1.5147   -3.7589    8.3170 H         1 <1>         0.4024 
      24 H8        -2.7820   -4.5707    9.2095 H         1 <1>         0.4191 
@<TRIPOS>BOND
       1        1        2 1        
       2        1       17 1        
       3        1       18 1        
       4        1       19 1        
       5        2        3 2        
       6        2        4 2        
       7        2        5 1        
       8        5        9 2        
       9        5        6 1        
      10        6        7 2        
      11        6       14 1        
      12        7        8 1        
      13        7       10 1        
      14        8        9 1        
      15       10       11 2        
      16       10       12 2        
      17       10       13 1        
      18       13       20 1        
      19       13       21 1        
      20       13       22 1        
      21       14       15 2        
      22       14       16 am       
      23       16       23 1        
      24       16       24 1        
@<TRIPOS>SUBSTRUCTURE
 1 **** 1 TEMP 0 **** **** 0 ROOT

