#        1GCZ_R01_S0001_C0000_L00022_S0001_C0002_G0010_E0001.mol2
#        Tue Jun  6 14:20:40 2017
#        Descriptor:     19    33    35     7     7    15
#        Energy - RMSD - RMSD MassCentre:     -36.0858    999.9999    999.9999
#        Receptor:       1  Surface Point:     1  Conformer:     0
#        Ligand:        22  Surface Point:     1  Conformer:     2
#        BUDE Formal Charge: 0
#        ATOM Count: 24
#        Heavy ATOM Count: 16
@<TRIPOS>MOLECULE
ZINC04389476_0_1GCZ_R01_S0001_C0000_L00022_S0001_C0002_G0010_E0001
 24 24 1 0 0
SMALL
USER_CHARGES
INVALID_CHARGES
@<TRIPOS>ATOM
       1 C1         1.0171   -1.5868    9.4205 C.3       1 <1>        -0.6382 
       2 S1         1.6233   -0.9737    7.8291 S.o2      1 <1>         2.5018 
       3 O1         2.1424    0.3486    7.9932 O.2       1 <1>        -0.9019 
       4 O2         2.6573   -1.8362    7.3476 O.2       1 <1>        -0.9041 
       5 C2         0.2388   -0.9420    6.6177 C.2       1 <1>        -0.4511 
       6 C3         0.3317   -0.5033    5.2072 C.2       1 <1>        -0.0263 
       7 C4        -0.8805   -0.6640    4.6592 C.2       1 <1>        -0.7363 
       8 S2        -2.0716   -1.3025    5.8021 S.3       1 <1>         0.4679 
       9 N1        -0.9219   -1.3326    6.9569 N.2       1 <1>        -0.3082 
      10 S3        -1.3187   -0.2711    2.9159 S.o2      1 <1>         2.5123 
      11 O3        -2.6990   -0.5712    2.6930 O.2       1 <1>        -0.9117 
      12 O4        -0.5126   -1.0552    2.0325 O.2       1 <1>        -0.8963 
      13 C5        -1.0261    1.4870    2.6006 C.3       1 <1>        -0.6438 
      14 C6         1.5183    0.0175    4.4923 C.2       1 <1>         0.5713 
      15 O5         1.4306    0.3382    3.3081 O.2       1 <1>        -0.4923 
      16 N2         2.6787    0.1384    5.1307 N.am      1 <1>        -0.8177 
      17 H1         0.6339   -2.5975    9.2968 H         1 <1>         0.1384 
      18 H2         0.2210   -0.9376    9.7790 H         1 <1>         0.1477 
      19 H3         1.8327   -1.5929   10.1406 H         1 <1>         0.1434 
      20 H4        -1.6306    2.0823    3.2818 H         1 <1>         0.1478 
      21 H5        -1.2988    1.7210    1.5737 H         1 <1>         0.1368 
      22 H6         0.0267    1.7126    2.7574 H         1 <1>         0.1390 
      23 H7         2.7495   -0.1252    6.1031 H         1 <1>         0.4024 
      24 H8         3.4885    0.4938    4.6429 H         1 <1>         0.4191 
@<TRIPOS>BOND
       1        1        2 1        
       2        1       17 1        
       3        1       18 1        
       4        1       19 1        
       5        2        3 2        
       6        2        4 2        
       7        2        5 1        
       8        5        9 2        
       9        5        6 1        
      10        6        7 2        
      11        6       14 1        
      12        7        8 1        
      13        7       10 1        
      14        8        9 1        
      15       10       11 2        
      16       10       12 2        
      17       10       13 1        
      18       13       20 1        
      19       13       21 1        
      20       13       22 1        
      21       14       15 2        
      22       14       16 am       
      23       16       23 1        
      24       16       24 1        
@<TRIPOS>SUBSTRUCTURE
 1 **** 1 TEMP 0 **** **** 0 ROOT

