#        1GCZ_R01_S0001_C0000_L00003_S0001_C0042_G0010_E0001.mol2
#        Tue Jun  6 14:04:52 2017
#        Descriptor:     25    36    16     7    10    12
#        Energy - RMSD - RMSD MassCentre:     -64.4400    999.9999    999.9999
#        Receptor:       1  Surface Point:     1  Conformer:     0
#        Ligand:         3  Surface Point:     1  Conformer:    42
#        BUDE Formal Charge: 0
#        ATOM Count: 58
#        Heavy ATOM Count: 30
@<TRIPOS>MOLECULE
ZINC61580633_1GCZ_R01_S0001_C0000_L00003_S0001_C0042_G0010_E0001
 58 59 0 0 0
SMALL
USER_CHARGES
@<TRIPOS>ATOM
       1 C1         0.9067    3.3061   -4.4193 C.3       1 <0>        -0.1532 
       2 C2        -0.4579    2.6738   -4.6781 C.3       1 <0>        -0.1224 
       3 C3        -0.7594    1.6502   -3.5844 C.3       1 <0>        -0.1198 
       4 C4         0.3056    0.5546   -3.6057 C.3       1 <0>         0.0610 
       5 O1         0.0233   -0.4034   -2.5823 O.3       1 <0>        -0.3878 
       6 C5         0.0348    0.1868   -1.2797 C.3       1 <0>         0.0487 
       7 C6        -0.2724   -0.8839   -0.2338 C.3       1 <0>         0.1244 
       8 N1        -0.2605   -0.2774    1.1051 N.am      1 <0>        -0.7216 
       9 C7        -1.2481    0.5325    1.4766 C.2       1 <0>         0.5161 
      10 O2        -2.1711    0.7740    0.7006 O.2       1 <0>        -0.5151 
      11 C8        -1.2359    1.1556    2.8520 C.3       1 <0>         0.0490 
      12 O3        -1.4715    0.1440    3.8348 O.3       1 <0>        -0.3194 
      13 C9        -1.4964    0.5152    5.1324 C.2       1 <0>         0.5417 
      14 O4        -1.3209    1.6836    5.4369 O.2       1 <0>        -0.5337 
      15 C10       -1.7366   -0.4954    6.1864 C.2       1 <0>        -0.2559 
      16 C11       -1.9742   -1.9332    5.9277 C.2       1 <0>        -0.0791 
      17 C12       -2.1768   -2.6255    7.0510 C.2       1 <0>        -0.2585 
      18 S1        -2.0930   -1.6138    8.5008 S.3       1 <0>         0.3028 
      19 C13       -1.7739   -0.1952    7.4917 C.2       1 <0>         0.0893 
      20 N2        -1.5907    1.0821    7.9520 N.am      1 <0>        -0.6099 
      21 C14       -1.6364    1.3324    9.2575 C.2       1 <0>         0.5551 
      22 O5        -1.8432    0.4166   10.0520 O.2       1 <0>        -0.4939 
      23 C15       -1.4382    2.7128    9.7531 C.ar      1 <0>        -0.1466 
      24 C16       -1.4975    2.9317   11.1346 C.ar      1 <0>        -0.0772 
      25 C17       -1.3913    4.2256   11.6585 C.ar      1 <0>        -0.1241 
      26 C18       -1.2339    5.3268   10.8089 C.ar      1 <0>        -0.0446 
      27 C19       -1.1209    5.1055    9.4311 C.ar      1 <0>        -0.1261 
      28 C20       -1.1984    3.8070    8.9135 C.ar      1 <0>        -0.0460 
      29 C21       -1.1836    6.7200   11.3892 C.3       1 <0>        -0.0928 
      30 C22       -2.5954    7.2960   11.4498 C.3       1 <0>        -0.1485 
      31 H1         1.6729    2.5339   -4.4385 H         1 <0>         0.0567 
      32 H2         0.9026    3.7896   -3.4448 H         1 <0>         0.0554 
      33 H3         1.1155    4.0445   -5.1905 H         1 <0>         0.0557 
      34 H4        -1.2236    3.4467   -4.6715 H         1 <0>         0.0632 
      35 H5        -0.4507    2.1776   -5.6463 H         1 <0>         0.0635 
      36 H6        -0.7530    2.1424   -2.6143 H         1 <0>         0.0711 
      37 H7        -1.7376    1.2076   -3.7609 H         1 <0>         0.0704 
      38 H8         0.2997    0.0609   -4.5753 H         1 <0>         0.0498 
      39 H9         1.2842    0.9958   -3.4286 H         1 <0>         0.0505 
      40 H10       -0.7190    0.9695   -1.2288 H         1 <0>         0.0584 
      41 H11        1.0159    0.6140   -1.0831 H         1 <0>         0.0702 
      42 H12        0.4814   -1.6668   -0.2832 H         1 <0>         0.0872 
      43 H13       -1.2536   -1.3114   -0.4289 H         1 <0>         0.0805 
      44 H14        0.4970   -0.4750    1.7432 H         1 <0>         0.4058 
      45 H15       -0.2677    1.6176    3.0331 H         1 <0>         0.1008 
      46 H16       -2.0165    1.9108    2.9155 H         1 <0>         0.0999 
      47 H17       -1.9677   -2.3554    4.9337 H         1 <0>         0.1557 
      48 H18       -2.3575   -3.6902    7.0578 H         1 <0>         0.1929 
      49 H19       -1.4208    1.8341    7.2996 H         1 <0>         0.4317 
      50 H20       -1.6311    2.0957   11.8051 H         1 <0>         0.1287 
      51 H21       -1.4322    4.3815   12.7263 H         1 <0>         0.1326 
      52 H22       -0.9693    5.9495    8.7745 H         1 <0>         0.1342 
      53 H23       -1.0453    3.6920    7.8506 H         1 <0>         0.1410 
      54 H24       -0.5601    7.3519   10.7602 H         1 <0>         0.0777 
      55 H25       -0.7643    6.6794   12.3923 H         1 <0>         0.0771 
      56 H26       -3.2146    6.6702   12.0892 H         1 <0>         0.0623 
      57 H27       -3.0188    7.3229   10.4479 H         1 <0>         0.0572 
      58 H28       -2.5576    8.3048   11.8556 H         1 <0>         0.0578 
@<TRIPOS>BOND
       1        1        2 1        
       2        1       31 1        
       3        1       32 1        
       4        1       33 1        
       5        2        3 1        
       6        2       34 1        
       7        2       35 1        
       8        3        4 1        
       9        3       36 1        
      10        3       37 1        
      11        4        5 1        
      12        4       38 1        
      13        4       39 1        
      14        5        6 1        
      15        6        7 1        
      16        6       40 1        
      17        6       41 1        
      18        7        8 1        
      19        7       42 1        
      20        7       43 1        
      21        8        9 am       
      22        8       44 1        
      23        9       10 2        
      24        9       11 1        
      25       11       12 1        
      26       11       45 1        
      27       11       46 1        
      28       12       13 1        
      29       13       14 2        
      30       13       15 1        
      31       15       19 2        
      32       15       16 1        
      33       16       17 2        
      34       16       47 1        
      35       17       18 1        
      36       17       48 1        
      37       18       19 1        
      38       19       20 1        
      39       20       21 am       
      40       20       49 1        
      41       21       22 2        
      42       21       23 1        
      43       23       28 ar       
      44       23       24 ar       
      45       24       25 ar       
      46       24       50 1        
      47       25       26 ar       
      48       25       51 1        
      49       26       27 ar       
      50       26       29 1        
      51       27       28 ar       
      52       27       52 1        
      53       28       53 1        
      54       29       30 1        
      55       29       54 1        
      56       29       55 1        
      57       30       56 1        
      58       30       57 1        
      59       30       58 1        

