#        1GCZ_R01_S0001_C0000_L00002_S0001_C0002_G0010_E0001.mol2
#        Tue Jun  6 09:54:31 2017
#        Descriptor:      3     2    10    12     9    13
#        Energy - RMSD - RMSD MassCentre:     -42.7210    999.9999    999.9999
#        Receptor:       1  Surface Point:     1  Conformer:     0
#        Ligand:         2  Surface Point:     1  Conformer:     2
#        BUDE Formal Charge: 0
#        ATOM Count: 22
#        Heavy ATOM Count: 16
@<TRIPOS>MOLECULE
ZINC02227500_0_1GCZ_R01_S0001_C0000_L00002_S0001_C0002_G0010_E0001
 22 24 1 0 0
SMALL
USER_CHARGES
INVALID_CHARGES
@<TRIPOS>ATOM
       1 C1         3.8254   -0.0473    3.9835 C.3       1 <1>         0.3194 
       2 N1         4.0009    0.9996    5.0003 N.pl3     1 <1>        -0.4769 
       3 C2         2.9964    1.6904    5.4726 C.2       1 <1>         0.3171 
       4 C3         3.1483    2.7422    6.5025 C.2       1 <1>         0.3210 
       5 N2         1.9766    3.2767    6.7917 N.2       1 <1>        -0.2760 
       6 O1         1.1109    2.5655    5.9525 O.3       1 <1>         0.0506 
       7 N3         1.7251    1.5850    5.1334 N.2       1 <1>        -0.2740 
       8 N4         4.3659    3.0670    7.0399 N.pl3     1 <1>        -0.4794 
       9 C4         5.4226    2.3462    6.5494 C.2       1 <1>         0.3182 
      10 C5         5.2325    1.3009    5.5190 C.2       1 <1>         0.3113 
      11 N5         6.3959    0.7555    5.2166 N.2       1 <1>        -0.2636 
      12 O2         7.2840    1.4695    6.0621 O.3       1 <1>         0.0468 
      13 N6         6.6971    2.4431    6.8792 N.2       1 <1>        -0.2717 
      14 C6         4.5303    4.1175    8.0548 C.3       1 <1>         0.3187 
      15 O3         4.7552    5.3730    7.4081 O.3       1 <1>        -0.5831 
      16 O4         2.6594   -0.8175    4.2873 O.3       1 <1>        -0.5790 
      17 H1         4.6977   -0.6975    3.9791 H         1 <1>         0.0922 
      18 H2         3.7118    0.4127    3.0042 H         1 <1>         0.0977 
      19 H3         5.3812    3.8782    8.6891 H         1 <1>         0.0998 
      20 H4         3.6297    4.1780    8.6623 H         1 <1>         0.0941 
      21 H5         4.0188    5.5961    6.8173 H         1 <1>         0.4091 
      22 H6         2.7334   -1.2290    5.1626 H         1 <1>         0.4075 
@<TRIPOS>BOND
       1        1        2 1        
       2        1       16 1        
       3        1       17 1        
       4        1       18 1        
       5        2       10 1        
       6        2        3 1        
       7        3        7 2        
       8        3        4 1        
       9        4        5 2        
      10        4        8 1        
      11        5        6 1        
      12        6        7 1        
      13        8        9 1        
      14        8       14 1        
      15        9       13 2        
      16        9       10 1        
      17       10       11 2        
      18       11       12 1        
      19       12       13 1        
      20       14       15 1        
      21       14       19 1        
      22       14       20 1        
      23       15       21 1        
      24       16       22 1        
@<TRIPOS>SUBSTRUCTURE
 1 **** 1 TEMP 0 **** **** 0 ROOT

