#        1GCZ_R01_S0001_C0000_L00022_S0001_C0003_G0010_E0001.mol2
#        Tue Jun  6 10:02:03 2017
#        Descriptor:     17    13     1     9    10    13
#        Energy - RMSD - RMSD MassCentre:     -37.8153    999.9999    999.9999
#        Receptor:       1  Surface Point:     1  Conformer:     0
#        Ligand:        22  Surface Point:     1  Conformer:     3
#        BUDE Formal Charge: 0
#        ATOM Count: 24
#        Heavy ATOM Count: 16
@<TRIPOS>MOLECULE
ZINC04389476_0_1GCZ_R01_S0001_C0000_L00022_S0001_C0003_G0010_E0001
 24 24 1 0 0
SMALL
USER_CHARGES
INVALID_CHARGES
@<TRIPOS>ATOM
       1 C1        -1.2536    1.4217    3.0126 C.3       1 <1>        -0.6382 
       2 S1        -0.3182    0.3101    4.0919 S.o2      1 <1>         2.5018 
       3 O1        -1.2079   -0.6375    4.6880 O.2       1 <1>        -0.9019 
       4 O2         0.6708   -0.3808    3.3240 O.2       1 <1>        -0.9041 
       5 C2         0.5069    1.2901    5.4128 C.2       1 <1>        -0.4511 
       6 C3         1.3632    0.7445    6.4895 C.2       1 <1>        -0.0263 
       7 C4         1.7946    1.7819    7.2198 C.2       1 <1>        -0.7363 
       8 S2         1.1812    3.3358    6.6351 S.3       1 <1>         0.4679 
       9 N1         0.3807    2.5540    5.4498 N.2       1 <1>        -0.3082 
      10 S3         2.8983    1.6620    8.6871 S.o2      1 <1>         2.5123 
      11 O3         4.1440    1.0769    8.2990 O.2       1 <1>        -0.9117 
      12 O4         2.2794    0.8454    9.6847 O.2       1 <1>        -0.8963 
      13 C5         3.1932    3.3168    9.3584 C.3       1 <1>        -0.6438 
      14 C6         1.7094   -0.6711    6.7480 C.2       1 <1>         0.5713 
      15 O5         1.2627   -1.5558    6.0195 O.2       1 <1>        -0.4923 
      16 N2         2.5033   -0.9855    7.7674 N.am      1 <1>        -0.8177 
      17 H1        -0.5738    2.1342    2.5502 H         1 <1>         0.1384 
      18 H2        -1.9962    1.9570    3.6005 H         1 <1>         0.1477 
      19 H3        -1.7522    0.8408    2.2396 H         1 <1>         0.1434 
      20 H4         3.6527    3.9406    8.5946 H         1 <1>         0.1478 
      21 H5         3.8572    3.2459   10.2175 H         1 <1>         0.1368 
      22 H6         2.2468    3.7567    9.6660 H         1 <1>         0.1390 
      23 H7         2.8695   -0.2582    8.3648 H         1 <1>         0.4024 
      24 H8         2.7396   -1.9516    7.9437 H         1 <1>         0.4191 
@<TRIPOS>BOND
       1        1        2 1        
       2        1       17 1        
       3        1       18 1        
       4        1       19 1        
       5        2        3 2        
       6        2        4 2        
       7        2        5 1        
       8        5        9 2        
       9        5        6 1        
      10        6        7 2        
      11        6       14 1        
      12        7        8 1        
      13        7       10 1        
      14        8        9 1        
      15       10       11 2        
      16       10       12 2        
      17       10       13 1        
      18       13       20 1        
      19       13       21 1        
      20       13       22 1        
      21       14       15 2        
      22       14       16 am       
      23       16       23 1        
      24       16       24 1        
@<TRIPOS>SUBSTRUCTURE
 1 **** 1 TEMP 0 **** **** 0 ROOT

