#        1GCZ_R01_S0001_C0000_L00022_S0001_C0003_G0010_E0001.mol2
#        Tue Jun  6 14:20:42 2017
#        Descriptor:     17    18    29     9     8    11
#        Energy - RMSD - RMSD MassCentre:     -42.0873    999.9999    999.9999
#        Receptor:       1  Surface Point:     1  Conformer:     0
#        Ligand:        22  Surface Point:     1  Conformer:     3
#        BUDE Formal Charge: 0
#        ATOM Count: 24
#        Heavy ATOM Count: 16
@<TRIPOS>MOLECULE
ZINC04389476_0_1GCZ_R01_S0001_C0000_L00022_S0001_C0003_G0010_E0001
 24 24 1 0 0
SMALL
USER_CHARGES
INVALID_CHARGES
@<TRIPOS>ATOM
       1 C1         0.8433   -0.0904   -0.0545 C.3       1 <1>        -0.6382 
       2 S1        -0.4607   -0.1833    1.1971 S.o2      1 <1>         2.5018 
       3 O1        -1.5775    0.6081    0.7830 O.2       1 <1>        -0.9019 
       4 O2        -0.8726   -1.5432    1.3576 O.2       1 <1>        -0.9041 
       5 C2         0.1815    0.4551    2.7989 C.2       1 <1>        -0.4511 
       6 C3        -0.5807    0.5435    4.0644 C.2       1 <1>        -0.0263 
       7 C4         0.2506    1.0275    4.9973 C.2       1 <1>        -0.7363 
       8 S2         1.8684    1.3682    4.3654 S.3       1 <1>         0.4679 
       9 N1         1.3830    0.8575    2.8956 N.2       1 <1>        -0.3082 
      10 S3        -0.1905    1.3339    6.7571 S.o2      1 <1>         2.5123 
      11 O3        -0.5861    0.1038    7.3696 O.2       1 <1>        -0.9117 
      12 O4        -1.2717    2.2675    6.8229 O.2       1 <1>        -0.8963 
      13 C5         1.2439    2.0079    7.6313 C.3       1 <1>        -0.6438 
      14 C6        -1.9940    0.1746    4.3034 C.2       1 <1>         0.5713 
      15 O5        -2.6794   -0.2627    3.3805 O.2       1 <1>        -0.4923 
      16 N2        -2.5217    0.3162    5.5158 N.am      1 <1>        -0.8177 
      17 H1         1.6873   -0.7027    0.2558 H         1 <1>         0.1384 
      18 H2         1.1655    0.9429   -0.1657 H         1 <1>         0.1477 
      19 H3         0.4595   -0.4553   -1.0049 H         1 <1>         0.1434 
      20 H4         2.0696    1.3022    7.5699 H         1 <1>         0.1478 
      21 H5         0.9860    2.1755    8.6749 H         1 <1>         0.1368 
      22 H6         1.5367    2.9505    7.1735 H         1 <1>         0.1390 
      23 H7        -1.9579    0.6753    6.2729 H         1 <1>         0.4024 
      24 H8        -3.4862    0.0644    5.6789 H         1 <1>         0.4191 
@<TRIPOS>BOND
       1        1        2 1        
       2        1       17 1        
       3        1       18 1        
       4        1       19 1        
       5        2        3 2        
       6        2        4 2        
       7        2        5 1        
       8        5        9 2        
       9        5        6 1        
      10        6        7 2        
      11        6       14 1        
      12        7        8 1        
      13        7       10 1        
      14        8        9 1        
      15       10       11 2        
      16       10       12 2        
      17       10       13 1        
      18       13       20 1        
      19       13       21 1        
      20       13       22 1        
      21       14       15 2        
      22       14       16 am       
      23       16       23 1        
      24       16       24 1        
@<TRIPOS>SUBSTRUCTURE
 1 **** 1 TEMP 0 **** **** 0 ROOT

