#        1GCZ_R01_S0001_C0000_L00023_S0001_C0000_G0010_E0001.mol2
#        Tue Jun  6 10:02:04 2017
#        Descriptor:     23    19    10    10     7     8
#        Energy - RMSD - RMSD MassCentre:     -36.9906    999.9999    999.9999
#        Receptor:       1  Surface Point:     1  Conformer:     0
#        Ligand:        23  Surface Point:     1  Conformer:     0
#        BUDE Formal Charge: 0
#        ATOM Count: 36
#        Heavy ATOM Count: 16
@<TRIPOS>MOLECULE
ZINC51162372_0_1GCZ_R01_S0001_C0000_L00023_S0001_C0000_G0010_E0001
 36 35 1 0 0
SMALL
USER_CHARGES
INVALID_CHARGES
@<TRIPOS>ATOM
       1 C1         0.8135    1.1188   -0.5647 C.3       1 <1>        -0.1461 
       2 C2        -0.3089    0.7486    0.4007 C.3       1 <1>        -0.1179 
       3 C3         0.2585   -0.0979    1.5393 C.3       1 <1>        -0.6290 
       4 S1        -1.0727   -0.5370    2.6843 S.o2      1 <1>         2.6107 
       5 O1        -0.5418   -1.3293    3.7498 O.2       1 <1>        -0.9541 
       6 O2        -2.0738   -1.2846    1.9888 O.2       1 <1>        -0.9552 
       7 N1        -1.7833    0.9211    3.3411 N.pl3     1 <1>        -1.1210 
       8 C4        -0.9319    1.9184    4.0051 C.3       1 <1>         0.1119 
       9 C5        -0.8851    1.6294    5.5047 C.3       1 <1>        -0.1350 
      10 C6         0.0001    2.6662    6.1950 C.3       1 <1>         0.1119 
      11 N2         1.3635    2.5846    5.6517 N.pl3     1 <1>        -1.1211 
      12 S2         2.5543    1.5633    6.4274 S.o2      1 <1>         2.6116 
      13 O3         2.7574    2.0059    7.7719 O.2       1 <1>        -0.9552 
      14 O4         2.0888    0.2112    6.4350 O.2       1 <1>        -0.9541 
      15 C7         4.1156    1.6599    5.5169 C.3       1 <1>        -0.6310 
      16 C8         3.9009    1.1706    4.0874 C.3       1 <1>        -0.1486 
      17 H1         1.2460    0.2119   -0.9817 H         1 <1>         0.0593 
      18 H2         0.4120    1.7326   -1.3683 H         1 <1>         0.0593 
      19 H3         1.5810    1.6753   -0.0311 H         1 <1>         0.0641 
      20 H4        -1.0704    0.1798   -0.1286 H         1 <1>         0.0798 
      21 H5        -0.7505    1.6551    0.8090 H         1 <1>         0.0797 
      22 H6         1.0197    0.4701    2.0698 H         1 <1>         0.1340 
      23 H7         0.6999   -1.0052    1.1323 H         1 <1>         0.1317 
      24 H8        -2.7783    1.0768    3.2637 H         1 <1>         0.4200 
      25 H9         0.0740    1.8671    3.5936 H         1 <1>         0.0708 
      26 H10       -1.3419    2.9125    3.8392 H         1 <1>         0.0862 
      27 H11       -1.8915    1.6805    5.9148 H         1 <1>         0.0834 
      28 H12       -0.4756    0.6349    5.6692 H         1 <1>         0.0834 
      29 H13       -0.4025    3.6614    6.0179 H         1 <1>         0.0863 
      30 H14        0.0226    2.4685    7.2646 H         1 <1>         0.0707 
      31 H15        1.6126    3.1181    4.8311 H         1 <1>         0.4201 
      32 H16        4.4613    2.6913    5.4997 H         1 <1>         0.1307 
      33 H17        4.8596    1.0352    6.0067 H         1 <1>         0.1331 
      34 H18        3.1658    1.8037    3.5946 H         1 <1>         0.0831 
      35 H19        4.8422    1.2163    3.5439 H         1 <1>         0.0732 
      36 H20        3.5416    0.1439    4.1063 H         1 <1>         0.0733 
@<TRIPOS>BOND
       1        1        2 1        
       2        1       17 1        
       3        1       18 1        
       4        1       19 1        
       5        2        3 1        
       6        2       20 1        
       7        2       21 1        
       8        3        4 1        
       9        3       22 1        
      10        3       23 1        
      11        4        5 2        
      12        4        6 2        
      13        4        7 1        
      14        7        8 1        
      15        7       24 1        
      16        8        9 1        
      17        8       25 1        
      18        8       26 1        
      19        9       10 1        
      20        9       27 1        
      21        9       28 1        
      22       10       11 1        
      23       10       29 1        
      24       10       30 1        
      25       11       12 1        
      26       11       31 1        
      27       12       13 2        
      28       12       14 2        
      29       12       15 1        
      30       15       16 1        
      31       15       32 1        
      32       15       33 1        
      33       16       34 1        
      34       16       35 1        
      35       16       36 1        
@<TRIPOS>SUBSTRUCTURE
 1 **** 1 TEMP 0 **** **** 0 ROOT

