#        1GCZ_R01_S0001_C0000_L00023_S0001_C0000_G0010_E0001.mol2
#        Tue Jun  6 14:20:43 2017
#        Descriptor:     21    29     5    11     6    15
#        Energy - RMSD - RMSD MassCentre:     -35.3263    999.9999    999.9999
#        Receptor:       1  Surface Point:     1  Conformer:     0
#        Ligand:        23  Surface Point:     1  Conformer:     0
#        BUDE Formal Charge: 0
#        ATOM Count: 36
#        Heavy ATOM Count: 16
@<TRIPOS>MOLECULE
ZINC51162372_0_1GCZ_R01_S0001_C0000_L00023_S0001_C0000_G0010_E0001
 36 35 1 0 0
SMALL
USER_CHARGES
INVALID_CHARGES
@<TRIPOS>ATOM
       1 C1         2.0751   -1.4241    9.2426 C.3       1 <1>        -0.1461 
       2 C2         0.6919   -1.8843    8.7912 C.3       1 <1>        -0.1179 
       3 C3         0.8396   -2.9930    7.7501 C.3       1 <1>        -0.6290 
       4 S1        -0.8010   -3.5388    7.2148 S.o2      1 <1>         2.6107 
       5 O1        -0.6628   -4.5762    6.2405 O.2       1 <1>        -0.9541 
       6 O2        -1.5068   -2.4364    6.6391 O.2       1 <1>        -0.9552 
       7 N1        -1.6923   -4.1482    8.5919 N.pl3     1 <1>        -1.1210 
       8 C4        -1.1166   -5.2119    9.4271 C.3       1 <1>         0.1119 
       9 C5        -1.5811   -6.5724    8.9094 C.3       1 <1>        -0.1350 
      10 C6        -0.9825   -7.6782    9.7777 C.3       1 <1>         0.1119 
      11 N2         0.4843   -7.6169    9.7052 N.pl3     1 <1>        -1.1211 
      12 S2         1.3416   -8.5689    8.5129 S.o2      1 <1>         2.6116 
      13 O3         1.0766   -9.9569    8.7322 O.2       1 <1>        -0.9552 
      14 O4         0.9011   -8.1998    7.2034 O.2       1 <1>        -0.9541 
      15 C7         3.1191   -8.2619    8.6616 C.3       1 <1>        -0.6310 
      16 C8         3.4019   -6.7836    8.4100 C.3       1 <1>        -0.1486 
      17 H1         2.6235   -1.0340    8.3878 H         1 <1>         0.0593 
      18 H2         1.9699   -0.6440    9.9935 H         1 <1>         0.0593 
      19 H3         2.6162   -2.2669    9.6675 H         1 <1>         0.0641 
      20 H4         0.1551   -1.0456    8.3532 H         1 <1>         0.0798 
      21 H5         0.1379   -2.2633    9.6474 H         1 <1>         0.0797 
      22 H6         1.3758   -3.8327    8.1871 H         1 <1>         0.1340 
      23 H7         1.3930   -2.6151    6.8930 H         1 <1>         0.1317 
      24 H8        -2.6021   -3.7689    8.8122 H         1 <1>         0.4200 
      25 H9        -0.0307   -5.1582    9.3840 H         1 <1>         0.0708 
      26 H10       -1.4461   -5.0828   10.4560 H         1 <1>         0.0862 
      27 H11       -2.6669   -6.6246    8.9524 H         1 <1>         0.0834 
      28 H12       -1.2516   -6.7000    7.8804 H         1 <1>         0.0834 
      29 H13       -1.3014   -7.5413   10.8089 H         1 <1>         0.0863 
      30 H14       -1.3241   -8.6463    9.4173 H         1 <1>         0.0707 
      31 H15        0.9968   -7.0255   10.3437 H         1 <1>         0.4201 
      32 H16        3.4501   -8.5297    9.6628 H         1 <1>         0.1307 
      33 H17        3.6530   -8.8637    7.9292 H         1 <1>         0.1331 
      34 H18        2.8775   -6.1834    9.1507 H         1 <1>         0.0831 
      35 H19        4.4717   -6.6015    8.4864 H         1 <1>         0.0732 
      36 H20        3.0576   -6.5135    7.4139 H         1 <1>         0.0733 
@<TRIPOS>BOND
       1        1        2 1        
       2        1       17 1        
       3        1       18 1        
       4        1       19 1        
       5        2        3 1        
       6        2       20 1        
       7        2       21 1        
       8        3        4 1        
       9        3       22 1        
      10        3       23 1        
      11        4        5 2        
      12        4        6 2        
      13        4        7 1        
      14        7        8 1        
      15        7       24 1        
      16        8        9 1        
      17        8       25 1        
      18        8       26 1        
      19        9       10 1        
      20        9       27 1        
      21        9       28 1        
      22       10       11 1        
      23       10       29 1        
      24       10       30 1        
      25       11       12 1        
      26       11       31 1        
      27       12       13 2        
      28       12       14 2        
      29       12       15 1        
      30       15       16 1        
      31       15       32 1        
      32       15       33 1        
      33       16       34 1        
      34       16       35 1        
      35       16       36 1        
@<TRIPOS>SUBSTRUCTURE
 1 **** 1 TEMP 0 **** **** 0 ROOT

