#        1GCZ_R01_S0001_C0000_L00023_S0001_C0001_G0010_E0001.mol2
#        Tue Jun  6 14:21:45 2017
#        Descriptor:      2    32    30     8    10     7
#        Energy - RMSD - RMSD MassCentre:     -43.6077    999.9999    999.9999
#        Receptor:       1  Surface Point:     1  Conformer:     0
#        Ligand:        23  Surface Point:     1  Conformer:     1
#        BUDE Formal Charge: 0
#        ATOM Count: 36
#        Heavy ATOM Count: 16
@<TRIPOS>MOLECULE
ZINC51162372_0_1GCZ_R01_S0001_C0000_L00023_S0001_C0001_G0010_E0001
 36 35 1 0 0
SMALL
USER_CHARGES
INVALID_CHARGES
@<TRIPOS>ATOM
       1 C1        -0.0148    1.9934   -1.0043 C.3       1 <1>        -0.1461 
       2 C2        -0.0069    0.9343    0.0943 C.3       1 <1>        -0.1179 
       3 C3        -0.5387    1.5429    1.3910 C.3       1 <1>        -0.6290 
       4 S1        -0.5294    0.2867    2.6940 S.o2      1 <1>         2.6107 
       5 O1         0.8100   -0.1652    2.9098 O.2       1 <1>        -0.9541 
       6 O2        -1.3463   -0.8182    2.2981 O.2       1 <1>        -0.9552 
       7 N1        -1.1570    0.9761    4.1749 N.pl3     1 <1>        -1.1210 
       8 C4        -0.5576    2.1993    4.7274 C.3       1 <1>         0.1119 
       9 C5         0.5374    1.8233    5.7245 C.3       1 <1>        -0.1350 
      10 C6         1.1606    3.0949    6.2988 C.3       1 <1>         0.1119 
      11 N2         0.1276    3.8734    6.9973 N.pl3     1 <1>        -1.1211 
      12 S2        -0.1310    3.6425    8.7127 S.o2      1 <1>         2.6116 
      13 O3        -1.1062    4.5796    9.1772 O.2       1 <1>        -0.9552 
      14 O4        -0.5974    2.3115    8.9486 O.2       1 <1>        -0.9541 
      15 C7         1.4266    3.9028    9.5969 C.3       1 <1>        -0.6310 
      16 C8         1.9139    5.3292    9.3582 C.3       1 <1>        -0.1486 
      17 H1         0.6287    2.8211   -0.7138 H         1 <1>         0.0593 
      18 H2         0.3513    1.5565   -1.9310 H         1 <1>         0.0593 
      19 H3        -1.0300    2.3564   -1.1500 H         1 <1>         0.0641 
      20 H4         1.0099    0.5807    0.2506 H         1 <1>         0.0798 
      21 H5        -0.6403    0.1004   -0.2007 H         1 <1>         0.0797 
      22 H6        -1.5560    1.8963    1.2361 H         1 <1>         0.1340 
      23 H7         0.0942    2.3767    1.6874 H         1 <1>         0.1317 
      24 H8        -1.9308    0.5333    4.6495 H         1 <1>         0.4200 
      25 H9        -0.1272    2.7880    3.9200 H         1 <1>         0.0708 
      26 H10       -1.3248    2.7821    5.2328 H         1 <1>         0.0862 
      27 H11        0.1059    1.2342    6.5309 H         1 <1>         0.0834 
      28 H12        1.3036    1.2400    5.2180 H         1 <1>         0.0834 
      29 H13        1.9493    2.8272    6.9990 H         1 <1>         0.0863 
      30 H14        1.5793    3.6900    5.4899 H         1 <1>         0.0707 
      31 H15       -0.4324    4.5412    6.4868 H         1 <1>         0.4201 
      32 H16        1.2689    3.7462   10.6619 H         1 <1>         0.1307 
      33 H17        2.1718    3.1987    9.2326 H         1 <1>         0.1331 
      34 H18        1.1735    6.0322    9.7342 H         1 <1>         0.0831 
      35 H19        2.8569    5.4815    9.8789 H         1 <1>         0.0732 
      36 H20        2.0578    5.4889    8.2916 H         1 <1>         0.0733 
@<TRIPOS>BOND
       1        1        2 1        
       2        1       17 1        
       3        1       18 1        
       4        1       19 1        
       5        2        3 1        
       6        2       20 1        
       7        2       21 1        
       8        3        4 1        
       9        3       22 1        
      10        3       23 1        
      11        4        5 2        
      12        4        6 2        
      13        4        7 1        
      14        7        8 1        
      15        7       24 1        
      16        8        9 1        
      17        8       25 1        
      18        8       26 1        
      19        9       10 1        
      20        9       27 1        
      21        9       28 1        
      22       10       11 1        
      23       10       29 1        
      24       10       30 1        
      25       11       12 1        
      26       11       31 1        
      27       12       13 2        
      28       12       14 2        
      29       12       15 1        
      30       15       16 1        
      31       15       32 1        
      32       15       33 1        
      33       16       34 1        
      34       16       35 1        
      35       16       36 1        
@<TRIPOS>SUBSTRUCTURE
 1 **** 1 TEMP 0 **** **** 0 ROOT

