#        1GCZ_R01_S0001_C0000_L00024_S0001_C0000_G0010_E0001.mol2
#        Tue Jun  6 10:02:32 2017
#        Descriptor:     18     1    36     6     8     9
#        Energy - RMSD - RMSD MassCentre:     -51.1767    999.9999    999.9999
#        Receptor:       1  Surface Point:     1  Conformer:     0
#        Ligand:        24  Surface Point:     1  Conformer:     0
#        BUDE Formal Charge: 0
#        ATOM Count: 23
#        Heavy ATOM Count: 16
@<TRIPOS>MOLECULE
ZINC03040181_0_1GCZ_R01_S0001_C0000_L00024_S0001_C0000_G0010_E0001
 23 23 1 0 0
SMALL
USER_CHARGES
INVALID_CHARGES
@<TRIPOS>ATOM
       1 C1        -0.3012   -1.0945    1.3010 C.ar      1 <1>        -0.0748 
       2 C2        -0.0508   -1.0943   -0.0763 C.ar      1 <1>        -0.0346 
       3 C3        -0.4423   -0.0005   -0.8576 C.ar      1 <1>        -0.6271 
       4 C4        -1.1141    1.0751   -0.2646 C.ar      1 <1>        -0.0346 
       5 C5        -1.3648    1.0723    1.1127 C.ar      1 <1>        -0.0389 
       6 C6        -0.9539   -0.0100    1.8989 C.ar      1 <1>         0.0285 
       7 N1        -1.1847   -0.0295    3.2796 N.2       1 <1>         0.0005 
       8 N2        -0.8330   -0.9776    4.0144 N.2       1 <1>        -0.6721 
       9 S1        -1.0966   -1.0000    5.5923 S.o2      1 <1>         2.7807 
      10 O1        -2.5037   -0.9418    5.8406 O.2       1 <1>        -0.9745 
      11 O2        -0.5635   -2.2054    6.1468 O.2       1 <1>        -0.9738 
      12 O3        -0.3932    0.2416    6.2588 O.3       1 <1>        -0.8819 
      13 S2        -0.1218   -0.0000   -2.6696 S.o2      1 <1>         2.7010 
      14 O4        -1.1889   -0.6741   -3.3417 O.2       1 <1>        -0.9531 
      15 O5         1.1103   -0.6748   -2.9368 O.2       1 <1>        -0.9524 
      16 N3        -0.0215    1.6497   -3.2447 N.pl3     1 <1>        -1.2472 
      17 H1         0.0100   -1.9336    1.9056 H         1 <1>         0.1589 
      18 H2         0.4436   -1.9363   -0.5377 H         1 <1>         0.1583 
      19 H3        -1.4371    1.9061   -0.8740 H         1 <1>         0.1632 
      20 H4        -1.8777    1.9102    1.5613 H         1 <1>         0.1599 
      21 H5        -0.7531    1.0442    5.8499 H         1 <1>         0.4711 
      22 H6        -0.1469    2.4173   -2.6004 H         1 <1>         0.4181 
      23 H7         0.1620    1.8336   -4.2207 H         1 <1>         0.4247 
@<TRIPOS>BOND
       1        1        6 ar       
       2        1        2 ar       
       3        1       17 1        
       4        2        3 ar       
       5        2       18 1        
       6        3        4 ar       
       7        3       13 1        
       8        4        5 ar       
       9        4       19 1        
      10        5        6 ar       
      11        5       20 1        
      12        6        7 1        
      13        7        8 2        
      14        8        9 1        
      15        9       10 2        
      16        9       11 2        
      17        9       12 1        
      18       12       21 1        
      19       13       14 2        
      20       13       15 2        
      21       13       16 1        
      22       16       22 1        
      23       16       23 1        
@<TRIPOS>SUBSTRUCTURE
 1 **** 1 TEMP 0 **** **** 0 ROOT

