#        1GCZ_R01_S0001_C0000_L00024_S0001_C0000_G0010_E0001.mol2
#        Tue Jun  6 14:21:46 2017
#        Descriptor:     21    15    32    11     8    12
#        Energy - RMSD - RMSD MassCentre:     -48.4128    999.9999    999.9999
#        Receptor:       1  Surface Point:     1  Conformer:     0
#        Ligand:        24  Surface Point:     1  Conformer:     0
#        BUDE Formal Charge: 0
#        ATOM Count: 23
#        Heavy ATOM Count: 16
@<TRIPOS>MOLECULE
ZINC03040181_0_1GCZ_R01_S0001_C0000_L00024_S0001_C0000_G0010_E0001
 23 23 1 0 0
SMALL
USER_CHARGES
INVALID_CHARGES
@<TRIPOS>ATOM
       1 C1         1.4548    0.0583    5.3355 C.ar      1 <1>        -0.0748 
       2 C2         2.3642    0.2091    6.3890 C.ar      1 <1>        -0.0346 
       3 C3         3.5675    0.8938    6.1809 C.ar      1 <1>        -0.6271 
       4 C4         3.8733    1.3959    4.9103 C.ar      1 <1>        -0.0346 
       5 C5         2.9631    1.2427    3.8577 C.ar      1 <1>        -0.0389 
       6 C6         1.7498    0.5785    4.0698 C.ar      1 <1>         0.0285 
       7 N1         0.8202    0.4228    3.0346 N.2       1 <1>         0.0005 
       8 N2        -0.2731   -0.1641    3.1852 N.2       1 <1>        -0.6721 
       9 S1        -1.3356   -0.3420    2.0023 S.o2      1 <1>         2.7807 
      10 O1        -0.7429   -1.0926    0.9392 O.2       1 <1>        -0.9745 
      11 O2        -2.4842   -1.0370    2.4948 O.2       1 <1>        -0.9738 
      12 O3        -1.7675    1.0754    1.4683 O.3       1 <1>        -0.8819 
      13 S2         4.7689    1.0874    7.5612 S.o2      1 <1>         2.7010 
      14 O4         5.6086   -0.0682    7.6267 O.2       1 <1>        -0.9531 
      15 O5         4.0599    1.2308    8.7947 O.2       1 <1>        -0.9524 
      16 N3         5.7532    2.5075    7.2842 N.pl3     1 <1>        -1.2472 
      17 H1         0.5219   -0.4609    5.4985 H         1 <1>         0.1589 
      18 H2         2.1397   -0.2018    7.3622 H         1 <1>         0.1583 
      19 H3         4.8133    1.9017    4.7466 H         1 <1>         0.1632 
      20 H4         3.2058    1.6399    2.8832 H         1 <1>         0.1599 
      21 H5        -0.9700    1.5356    1.1631 H         1 <1>         0.4711 
      22 H6         5.6127    3.0648    6.4538 H         1 <1>         0.4181 
      23 H7         6.4615    2.7692    7.9549 H         1 <1>         0.4247 
@<TRIPOS>BOND
       1        1        6 ar       
       2        1        2 ar       
       3        1       17 1        
       4        2        3 ar       
       5        2       18 1        
       6        3        4 ar       
       7        3       13 1        
       8        4        5 ar       
       9        4       19 1        
      10        5        6 ar       
      11        5       20 1        
      12        6        7 1        
      13        7        8 2        
      14        8        9 1        
      15        9       10 2        
      16        9       11 2        
      17        9       12 1        
      18       12       21 1        
      19       13       14 2        
      20       13       15 2        
      21       13       16 1        
      22       16       22 1        
      23       16       23 1        
@<TRIPOS>SUBSTRUCTURE
 1 **** 1 TEMP 0 **** **** 0 ROOT

