#        1GCZ_R01_S0001_C0000_L00003_S0001_C0043_G0010_E0001.mol2
#        Tue Jun  6 09:55:12 2017
#        Descriptor:     23     6    33     6    10    14
#        Energy - RMSD - RMSD MassCentre:     -66.8893    999.9999    999.9999
#        Receptor:       1  Surface Point:     1  Conformer:     0
#        Ligand:         3  Surface Point:     1  Conformer:    43
#        BUDE Formal Charge: 0
#        ATOM Count: 58
#        Heavy ATOM Count: 30
@<TRIPOS>MOLECULE
ZINC61580633_1GCZ_R01_S0001_C0000_L00003_S0001_C0043_G0010_E0001
 58 59 0 0 0
SMALL
USER_CHARGES
@<TRIPOS>ATOM
       1 C1        -0.0427    0.3844   -3.0915 C.3       1 <0>        -0.1532 
       2 C2         0.2885    0.6411   -1.6242 C.3       1 <0>        -0.1224 
       3 C3        -0.9913    0.5638   -0.7929 C.3       1 <0>        -0.1198 
       4 C4        -0.6595    0.8208    0.6763 C.3       1 <0>         0.0610 
       5 O1        -1.8573    0.7485    1.4542 O.3       1 <0>        -0.3878 
       6 C5        -1.6079    0.9817    2.8428 C.3       1 <0>         0.0487 
       7 C6        -0.6469   -0.0818    3.3724 C.3       1 <0>         0.1244 
       8 N1        -0.3906    0.1580    4.7999 N.am      1 <0>        -0.7216 
       9 C7        -1.3411   -0.0897    5.6965 C.2       1 <0>         0.5161 
      10 O2        -2.4344   -0.5192    5.3322 O.2       1 <0>        -0.5151 
      11 C8        -1.0777    0.1566    7.1629 C.3       1 <0>         0.0490 
      12 O3        -0.9873    1.5638    7.4003 O.3       1 <0>        -0.3194 
      13 C9         0.0107    2.2448    6.7979 C.2       1 <0>         0.5417 
      14 O4         0.8013    1.6590    6.0767 O.2       1 <0>        -0.5337 
      15 C10        0.1458    3.7027    7.0128 C.2       1 <0>        -0.2559 
      16 C11        1.2080    4.5414    6.4138 C.2       1 <0>        -0.0791 
      17 C12        1.1111    5.8221    6.7783 C.2       1 <0>        -0.2585 
      18 S1        -0.2583    6.1226    7.8585 S.3       1 <0>         0.3028 
      19 C13       -0.6870    4.4067    7.7915 C.2       1 <0>         0.0893 
      20 N2        -1.7354    3.8235    8.4529 N.am      1 <0>        -0.6099 
      21 C14       -2.5360    4.5630    9.2152 C.2       1 <0>         0.5551 
      22 O5        -2.3351    5.7714    9.3263 O.2       1 <0>        -0.4939 
      23 C15       -3.6682    3.9314    9.9291 C.ar      1 <0>        -0.1466 
      24 C16       -4.4837    4.7466   10.7230 C.ar      1 <0>        -0.0772 
      25 C17       -5.5245    4.1957   11.4801 C.ar      1 <0>        -0.1241 
      26 C18       -5.7627    2.8165   11.4651 C.ar      1 <0>        -0.0446 
      27 C19       -4.9831    2.0059   10.6314 C.ar      1 <0>        -0.1261 
      28 C20       -3.9620    2.5647    9.8534 C.ar      1 <0>        -0.0460 
      29 C21       -6.8500    2.2342   12.3364 C.3       1 <0>        -0.0928 
      30 C22       -6.2651    1.8571   13.6943 C.3       1 <0>        -0.1485 
      31 H1        -0.7380    1.1434   -3.4438 H         1 <0>         0.0567 
      32 H2        -0.4964   -0.5992   -3.1935 H         1 <0>         0.0554 
      33 H3         0.8704    0.4261   -3.6814 H         1 <0>         0.0557 
      34 H4         0.9936   -0.1101   -1.2741 H         1 <0>         0.0632 
      35 H5         0.7295    1.6302   -1.5189 H         1 <0>         0.0635 
      36 H6        -1.6968    1.3148   -1.1416 H         1 <0>         0.0711 
      37 H7        -1.4326   -0.4253   -0.8968 H         1 <0>         0.0704 
      38 H8         0.0454    0.0697    1.0264 H         1 <0>         0.0498 
      39 H9        -0.2188    1.8099    0.7814 H         1 <0>         0.0505 
      40 H10       -2.5444    0.9300    3.3940 H         1 <0>         0.0584 
      41 H11       -1.1643    1.9668    2.9719 H         1 <0>         0.0702 
      42 H12        0.2905   -0.0305    2.8226 H         1 <0>         0.0872 
      43 H13       -1.0897   -1.0673    3.2447 H         1 <0>         0.0805 
      44 H14        0.5070    0.5106    5.1001 H         1 <0>         0.4058 
      45 H15       -1.8920   -0.2585    7.7531 H         1 <0>         0.1008 
      46 H16       -0.1422   -0.3196    7.4489 H         1 <0>         0.0999 
      47 H17        1.9599    4.1428    5.7490 H         1 <0>         0.1557 
      48 H18        1.7950    6.5826    6.4316 H         1 <0>         0.1929 
      49 H19       -1.9004    2.8313    8.3617 H         1 <0>         0.4317 
      50 H20       -4.3073    5.8116   10.7570 H         1 <0>         0.1287 
      51 H21       -6.1510    4.8353   12.0840 H         1 <0>         0.1326 
      52 H22       -5.1830    0.9452   10.5940 H         1 <0>         0.1342 
      53 H23       -3.4336    1.9003    9.1859 H         1 <0>         0.1410 
      54 H24       -7.2606    1.3472   11.8586 H         1 <0>         0.0777 
      55 H25       -7.6385    2.9714   12.4724 H         1 <0>         0.0771 
      56 H26       -5.8661    2.7471   14.1765 H         1 <0>         0.0623 
      57 H27       -5.4672    1.1305   13.5557 H         1 <0>         0.0572 
      58 H28       -7.0455    1.4253   14.3173 H         1 <0>         0.0578 
@<TRIPOS>BOND
       1        1        2 1        
       2        1       31 1        
       3        1       32 1        
       4        1       33 1        
       5        2        3 1        
       6        2       34 1        
       7        2       35 1        
       8        3        4 1        
       9        3       36 1        
      10        3       37 1        
      11        4        5 1        
      12        4       38 1        
      13        4       39 1        
      14        5        6 1        
      15        6        7 1        
      16        6       40 1        
      17        6       41 1        
      18        7        8 1        
      19        7       42 1        
      20        7       43 1        
      21        8        9 am       
      22        8       44 1        
      23        9       10 2        
      24        9       11 1        
      25       11       12 1        
      26       11       45 1        
      27       11       46 1        
      28       12       13 1        
      29       13       14 2        
      30       13       15 1        
      31       15       19 2        
      32       15       16 1        
      33       16       17 2        
      34       16       47 1        
      35       17       18 1        
      36       17       48 1        
      37       18       19 1        
      38       19       20 1        
      39       20       21 am       
      40       20       49 1        
      41       21       22 2        
      42       21       23 1        
      43       23       28 ar       
      44       23       24 ar       
      45       24       25 ar       
      46       24       50 1        
      47       25       26 ar       
      48       25       51 1        
      49       26       27 ar       
      50       26       29 1        
      51       27       28 ar       
      52       27       52 1        
      53       28       53 1        
      54       29       30 1        
      55       29       54 1        
      56       29       55 1        
      57       30       56 1        
      58       30       57 1        
      59       30       58 1        

