#        1GCZ_R01_S0001_C0000_L00024_S0001_C0002_G0010_E0001.mol2
#        Tue Jun  6 10:02:33 2017
#        Descriptor:     21    17    31    11     8    13
#        Energy - RMSD - RMSD MassCentre:     -44.5713    999.9999    999.9999
#        Receptor:       1  Surface Point:     1  Conformer:     0
#        Ligand:        24  Surface Point:     1  Conformer:     2
#        BUDE Formal Charge: 0
#        ATOM Count: 23
#        Heavy ATOM Count: 16
@<TRIPOS>MOLECULE
ZINC03040181_0_1GCZ_R01_S0001_C0000_L00024_S0001_C0002_G0010_E0001
 23 23 1 0 0
SMALL
USER_CHARGES
INVALID_CHARGES
@<TRIPOS>ATOM
       1 C1         1.2422    0.6192    5.8373 C.ar      1 <1>        -0.0748 
       2 C2         1.9091    0.9136    7.0324 C.ar      1 <1>        -0.0346 
       3 C3         3.2401    1.3466    7.0016 C.ar      1 <1>        -0.6271 
       4 C4         3.9111    1.4510    5.7773 C.ar      1 <1>        -0.0346 
       5 C5         3.2428    1.1548    4.5834 C.ar      1 <1>        -0.0389 
       6 C6         1.9055    0.7436    4.6108 C.ar      1 <1>         0.0285 
       7 N1         1.2142    0.4523    3.4288 N.2       1 <1>         0.0005 
       8 N2         0.0203    0.0823    3.4128 N.2       1 <1>        -0.6721 
       9 S1        -0.7697   -0.2506    2.0620 S.o2      1 <1>         2.7807 
      10 O1        -0.8123    0.9158    1.2359 O.2       1 <1>        -0.9745 
      11 O2        -0.0991   -1.3044    1.3658 O.2       1 <1>        -0.9738 
      12 O3        -2.2378   -0.7017    2.4111 O.3       1 <1>        -0.8819 
      13 S2         4.1225    1.7270    8.5708 S.o2      1 <1>         2.7010 
      14 O4         4.6806    0.5244    9.1065 O.2       1 <1>        -0.9531 
      15 O5         3.2026    2.2853    9.5127 O.2       1 <1>        -0.9524 
      16 N3         5.4055    2.8747    8.2562 N.pl3     1 <1>        -1.2472 
      17 H1         0.2122    0.2950    5.8602 H         1 <1>         0.1589 
      18 H2         1.3991    0.8071    7.9784 H         1 <1>         0.1583 
      19 H3         4.9454    1.7612    5.7586 H         1 <1>         0.1632 
      20 H4         3.7678    1.2452    3.6439 H         1 <1>         0.1599 
      21 H5        -2.1821   -1.4777    2.9905 H         1 <1>         0.4711 
      22 H6         5.5645    3.2089    7.3165 H         1 <1>         0.4181 
      23 H7         5.9865    3.2025    9.0145 H         1 <1>         0.4247 
@<TRIPOS>BOND
       1        1        6 ar       
       2        1        2 ar       
       3        1       17 1        
       4        2        3 ar       
       5        2       18 1        
       6        3        4 ar       
       7        3       13 1        
       8        4        5 ar       
       9        4       19 1        
      10        5        6 ar       
      11        5       20 1        
      12        6        7 1        
      13        7        8 2        
      14        8        9 1        
      15        9       10 2        
      16        9       11 2        
      17        9       12 1        
      18       12       21 1        
      19       13       14 2        
      20       13       15 2        
      21       13       16 1        
      22       16       22 1        
      23       16       23 1        
@<TRIPOS>SUBSTRUCTURE
 1 **** 1 TEMP 0 **** **** 0 ROOT

