#        1GCZ_R01_S0001_C0000_L00024_S0001_C0004_G0010_E0001.mol2
#        Tue Jun  6 14:21:51 2017
#        Descriptor:     21    18    30    11     8    13
#        Energy - RMSD - RMSD MassCentre:     -46.1838    999.9999    999.9999
#        Receptor:       1  Surface Point:     1  Conformer:     0
#        Ligand:        24  Surface Point:     1  Conformer:     4
#        BUDE Formal Charge: 0
#        ATOM Count: 23
#        Heavy ATOM Count: 16
@<TRIPOS>MOLECULE
ZINC03040181_0_1GCZ_R01_S0001_C0000_L00024_S0001_C0004_G0010_E0001
 23 23 1 0 0
SMALL
USER_CHARGES
INVALID_CHARGES
@<TRIPOS>ATOM
       1 C1         1.3159    1.0199    5.5460 C.ar      1 <1>        -0.0748 
       2 C2         1.9184    1.3763    6.7582 C.ar      1 <1>        -0.0346 
       3 C3         3.3032    1.5739    6.8188 C.ar      1 <1>        -0.6271 
       4 C4         4.0857    1.3808    5.6742 C.ar      1 <1>        -0.0346 
       5 C5         3.4814    1.0228    4.4632 C.ar      1 <1>        -0.0389 
       6 C6         2.0947    0.8471    4.3957 C.ar      1 <1>         0.0285 
       7 N1         1.4677    0.4996    3.1932 N.2       1 <1>         0.0005 
       8 N2         0.2327    0.3338    3.0934 N.2       1 <1>        -0.6721 
       9 S1        -0.4840   -0.0634    1.7192 S.o2      1 <1>         2.7807 
      10 O1        -0.2446    0.9563    0.7457 O.2       1 <1>        -0.9745 
      11 O2         0.0446   -1.3060    1.2486 O.2       1 <1>        -0.9738 
      12 O3        -2.0338   -0.2081    1.9591 O.3       1 <1>        -0.8819 
      13 S2         4.0999    2.0350    8.4121 S.o2      1 <1>         2.7010 
      14 O4         4.3845    0.8511    9.1619 O.2       1 <1>        -0.9531 
      15 O5         3.2169    2.8727    9.1627 O.2       1 <1>        -0.9524 
      16 N3         5.5904    2.8944    8.0929 N.pl3     1 <1>        -1.2472 
      17 H1         0.2464    0.8775    5.4967 H         1 <1>         0.1589 
      18 H2         1.3175    1.4991    7.6471 H         1 <1>         0.1583 
      19 H3         5.1566    1.5094    5.7299 H         1 <1>         0.1632 
      20 H4         4.0936    0.8830    3.5846 H         1 <1>         0.1599 
      21 H5        -2.4458   -0.4486    1.1145 H         1 <1>         0.4711 
      22 H6         5.8878    3.0526    7.1407 H         1 <1>         0.4181 
      23 H7         6.1527    3.2320    8.8609 H         1 <1>         0.4247 
@<TRIPOS>BOND
       1        1        6 ar       
       2        1        2 ar       
       3        1       17 1        
       4        2        3 ar       
       5        2       18 1        
       6        3        4 ar       
       7        3       13 1        
       8        4        5 ar       
       9        4       19 1        
      10        5        6 ar       
      11        5       20 1        
      12        6        7 1        
      13        7        8 2        
      14        8        9 1        
      15        9       10 2        
      16        9       11 2        
      17        9       12 1        
      18       12       21 1        
      19       13       14 2        
      20       13       15 2        
      21       13       16 1        
      22       16       22 1        
      23       16       23 1        
@<TRIPOS>SUBSTRUCTURE
 1 **** 1 TEMP 0 **** **** 0 ROOT

