#        1GCZ_R01_S0001_C0000_L00025_S0001_C0000_G0010_E0001.mol2
#        Tue Jun  6 10:02:35 2017
#        Descriptor:     27    19    23    10    13    12
#        Energy - RMSD - RMSD MassCentre:     -32.5939    999.9999    999.9999
#        Receptor:       1  Surface Point:     1  Conformer:     0
#        Ligand:        25  Surface Point:     1  Conformer:     0
#        BUDE Formal Charge: 0
#        ATOM Count: 23
#        Heavy ATOM Count: 16
@<TRIPOS>MOLECULE
ZINC02437791_0_1GCZ_R01_S0001_C0000_L00025_S0001_C0000_G0010_E0001
 23 24 1 0 0
SMALL
USER_CHARGES
INVALID_CHARGES
@<TRIPOS>ATOM
       1 C1         4.7307    3.4547    8.7834 C.3       1 <1>         0.0823 
       2 N1         5.6529    2.4988    8.1536 N.pl3     1 <1>        -0.3597 
       3 C2         5.6214    1.9868    6.8833 C.2       1 <1>         0.1923 
       4 N2         6.5747    1.1199    6.5971 N.2       1 <1>        -0.3372 
       5 N3         7.3366    1.0420    7.8283 N.2       1 <1>        -0.0286 
       6 N4         6.7991    1.8512    8.7612 N.2       1 <1>        -0.0740 
       7 S1         4.3593    2.4900    5.7490 S.3       1 <1>         0.1305 
       8 C3         4.5967    1.6343    4.1603 C.3       1 <1>        -0.1544 
       9 C4         4.4965    0.1428    4.3731 C.2       1 <1>         0.5317 
      10 O1         3.4000   -0.3793    4.5679 O.2       1 <1>        -0.4484 
      11 N5         5.5948   -0.6071    4.3499 N.am      1 <1>        -0.6061 
      12 C5         5.5056   -1.9605    4.5429 C.2       1 <1>         0.2657 
      13 N6         4.3327   -2.5303    4.7483 N.2       1 <1>        -0.2928 
      14 N7         4.4528   -3.9656    4.9161 N.2       1 <1>        -0.2434 
      15 C6         5.6701   -4.3133    4.8272 C.2       1 <1>         0.0321 
      16 S2         6.8895   -3.0640    4.5351 S.3       1 <1>         0.0339 
      17 H1         3.7282    3.0324    8.8011 H         1 <1>         0.0991 
      18 H2         4.7246    4.3812    8.2132 H         1 <1>         0.1101 
      19 H3         5.0579    3.6565    9.8012 H         1 <1>         0.1039 
      20 H4         5.5784    1.8777    3.7597 H         1 <1>         0.1424 
      21 H5         3.8288    1.9521    3.4582 H         1 <1>         0.1426 
      22 H6         6.4952   -0.1785    4.1900 H         1 <1>         0.4348 
      23 H7         5.9558   -5.3499    4.9274 H         1 <1>         0.2434 
@<TRIPOS>BOND
       1        1        2 1        
       2        1       17 1        
       3        1       18 1        
       4        1       19 1        
       5        2        6 1        
       6        2        3 1        
       7        3        4 2        
       8        3        7 1        
       9        4        5 1        
      10        5        6 2        
      11        7        8 1        
      12        8        9 1        
      13        8       20 1        
      14        8       21 1        
      15        9       10 2        
      16        9       11 am       
      17       11       12 1        
      18       11       22 1        
      19       12       16 1        
      20       12       13 2        
      21       13       14 1        
      22       14       15 2        
      23       15       16 1        
      24       15       23 1        
@<TRIPOS>SUBSTRUCTURE
 1 **** 1 TEMP 0 **** **** 0 ROOT

