#        1GCZ_R01_S0001_C0000_L00003_S0001_C0043_G0010_E0001.mol2
#        Tue Jun  6 14:04:54 2017
#        Descriptor:     36    36    15     8     4    15
#        Energy - RMSD - RMSD MassCentre:     -55.2301    999.9999    999.9999
#        Receptor:       1  Surface Point:     1  Conformer:     0
#        Ligand:         3  Surface Point:     1  Conformer:    43
#        BUDE Formal Charge: 0
#        ATOM Count: 58
#        Heavy ATOM Count: 30
@<TRIPOS>MOLECULE
ZINC61580633_1GCZ_R01_S0001_C0000_L00003_S0001_C0043_G0010_E0001
 58 59 0 0 0
SMALL
USER_CHARGES
@<TRIPOS>ATOM
       1 C1         3.0283  -11.9988   10.9931 C.3       1 <0>        -0.1532 
       2 C2         2.2124  -10.7123   10.9069 C.3       1 <0>        -0.1224 
       3 C3         2.3389  -10.1229    9.5028 C.3       1 <0>        -0.1198 
       4 C4         1.5218   -8.8346    9.4166 C.3       1 <0>         0.0610 
       5 O1         1.6403   -8.2831    8.1025 O.3       1 <0>        -0.3878 
       6 C5         0.8937   -7.0716    7.9618 C.3       1 <0>         0.0487 
       7 C6        -0.5866   -7.3545    8.2134 C.3       1 <0>         0.1244 
       8 N1        -1.3540   -6.1090    8.0687 N.am      1 <0>        -0.7216 
       9 C7        -1.5416   -5.5804    6.8629 C.2       1 <0>         0.5161 
      10 O2        -1.0736   -6.1327    5.8687 O.2       1 <0>        -0.5151 
      11 C8        -2.3300   -4.3010    6.7143 C.3       1 <0>         0.0490 
      12 O3        -1.5781   -3.2130    7.2581 O.3       1 <0>        -0.3194 
      13 C9        -1.2924   -3.2375    8.5773 C.2       1 <0>         0.5417 
      14 O4        -1.6732   -4.1687    9.2675 O.2       1 <0>        -0.5337 
      15 C10       -0.5169   -2.1342    9.1865 C.2       1 <0>        -0.2559 
      16 C11       -0.1610   -2.0547   10.6209 C.2       1 <0>        -0.0791 
      17 C12        0.5301   -0.9505   10.9131 C.2       1 <0>        -0.2585 
      18 S1         0.8123    0.0729    9.4970 S.3       1 <0>         0.3028 
      19 C13       -0.0689   -1.0828    8.4869 C.2       1 <0>         0.0893 
      20 N2        -0.2979   -0.9499    7.1427 N.am      1 <0>        -0.6099 
      21 C14        0.1666    0.1117    6.4899 C.2       1 <0>         0.5551 
      22 O5         0.8021    0.9747    7.0933 O.2       1 <0>        -0.4939 
      23 C15       -0.0816    0.2537    5.0378 C.ar      1 <0>        -0.1466 
      24 C16        0.4227    1.3883    4.3910 C.ar      1 <0>        -0.0772 
      25 C17        0.1579    1.6151    3.0352 C.ar      1 <0>        -0.1241 
      26 C18       -0.6255    0.7156    2.3028 C.ar      1 <0>        -0.0446 
      27 C19       -1.0864   -0.4464    2.9331 C.ar      1 <0>        -0.1261 
      28 C20       -0.7949   -0.6840    4.2816 C.ar      1 <0>        -0.0460 
      29 C21       -0.9514    1.0097    0.8579 C.3       1 <0>        -0.0928 
      30 C22       -2.2524    1.8035    0.7823 C.3       1 <0>        -0.1485 
      31 H1         4.0754  -11.7772   10.7971 H         1 <0>         0.0567 
      32 H2         2.6630  -12.7093   10.2546 H         1 <0>         0.0554 
      33 H3         2.9274  -12.4255   11.9887 H         1 <0>         0.0557 
      34 H4         1.1669  -10.9305   11.1151 H         1 <0>         0.0632 
      35 H5         2.5858   -9.9956   11.6354 H         1 <0>         0.0635 
      36 H6         3.3837   -9.9036    9.2937 H         1 <0>         0.0711 
      37 H7         1.9648  -10.8384    8.7735 H         1 <0>         0.0704 
      38 H8         0.4764   -9.0528    9.6247 H         1 <0>         0.0498 
      39 H9         1.8955   -8.1181   10.1450 H         1 <0>         0.0505 
      40 H10        1.0215   -6.6808    6.9545 H         1 <0>         0.0584 
      41 H11        1.2500   -6.3393    8.6834 H         1 <0>         0.0702 
      42 H12       -0.7158   -7.7444    9.2208 H         1 <0>         0.0872 
      43 H13       -0.9443   -8.0860    7.4919 H         1 <0>         0.0805 
      44 H14       -1.7389   -5.6546    8.8845 H         1 <0>         0.4058 
      45 H15       -2.5254   -4.1150    5.6603 H         1 <0>         0.1008 
      46 H16       -3.2735   -4.3917    7.2483 H         1 <0>         0.0999 
      47 H17       -0.4302   -2.8220   11.3316 H         1 <0>         0.1557 
      48 H18        0.8832   -0.7275   11.9090 H         1 <0>         0.1929 
      49 H19       -0.8197   -1.6586    6.6472 H         1 <0>         0.4317 
      50 H20        1.0188    2.1000    4.9428 H         1 <0>         0.1287 
      51 H21        0.5575    2.4908    2.5454 H         1 <0>         0.1326 
      52 H22       -1.6661   -1.1579    2.3637 H         1 <0>         0.1342 
      53 H23       -1.1261   -1.6240    4.6975 H         1 <0>         0.1410 
      54 H24       -1.0647    0.0739    0.3147 H         1 <0>         0.0777 
      55 H25       -0.1449    1.5909    0.4159 H         1 <0>         0.0771 
      56 H26       -2.1338    2.7446    1.3152 H         1 <0>         0.0623 
      57 H27       -3.0553    1.2271    1.2373 H         1 <0>         0.0572 
      58 H28       -2.4941    2.0038   -0.2594 H         1 <0>         0.0578 
@<TRIPOS>BOND
       1        1        2 1        
       2        1       31 1        
       3        1       32 1        
       4        1       33 1        
       5        2        3 1        
       6        2       34 1        
       7        2       35 1        
       8        3        4 1        
       9        3       36 1        
      10        3       37 1        
      11        4        5 1        
      12        4       38 1        
      13        4       39 1        
      14        5        6 1        
      15        6        7 1        
      16        6       40 1        
      17        6       41 1        
      18        7        8 1        
      19        7       42 1        
      20        7       43 1        
      21        8        9 am       
      22        8       44 1        
      23        9       10 2        
      24        9       11 1        
      25       11       12 1        
      26       11       45 1        
      27       11       46 1        
      28       12       13 1        
      29       13       14 2        
      30       13       15 1        
      31       15       19 2        
      32       15       16 1        
      33       16       17 2        
      34       16       47 1        
      35       17       18 1        
      36       17       48 1        
      37       18       19 1        
      38       19       20 1        
      39       20       21 am       
      40       20       49 1        
      41       21       22 2        
      42       21       23 1        
      43       23       28 ar       
      44       23       24 ar       
      45       24       25 ar       
      46       24       50 1        
      47       25       26 ar       
      48       25       51 1        
      49       26       27 ar       
      50       26       29 1        
      51       27       28 ar       
      52       27       52 1        
      53       28       53 1        
      54       29       30 1        
      55       29       54 1        
      56       29       55 1        
      57       30       56 1        
      58       30       57 1        
      59       30       58 1        

