#        1GCZ_R01_S0001_C0000_L00025_S0001_C0002_G0010_E0001.mol2
#        Tue Jun  6 10:02:36 2017
#        Descriptor:     11    21    23    15     6    10
#        Energy - RMSD - RMSD MassCentre:     -37.4379    999.9999    999.9999
#        Receptor:       1  Surface Point:     1  Conformer:     0
#        Ligand:        25  Surface Point:     1  Conformer:     2
#        BUDE Formal Charge: 0
#        ATOM Count: 23
#        Heavy ATOM Count: 16
@<TRIPOS>MOLECULE
ZINC02437791_0_1GCZ_R01_S0001_C0000_L00025_S0001_C0002_G0010_E0001
 23 24 1 0 0
SMALL
USER_CHARGES
INVALID_CHARGES
@<TRIPOS>ATOM
       1 C1         7.7024    0.7891    6.9361 C.3       1 <1>         0.0823 
       2 N1         6.4974    1.6258    6.8428 N.pl3     1 <1>        -0.3597 
       3 C2         5.4621    1.5416    5.9496 C.2       1 <1>         0.1923 
       4 N2         4.5154    2.4505    6.0908 N.2       1 <1>        -0.3372 
       5 N3         4.9753    3.2403    7.2164 N.2       1 <1>        -0.0286 
       6 N4         6.1513    2.7653    7.6698 N.2       1 <1>        -0.0740 
       7 S1         5.4535    0.2788    4.7094 S.3       1 <1>         0.1305 
       8 C3         3.9533    0.4398    3.6916 C.3       1 <1>        -0.1544 
       9 C4         2.7331    0.2750    4.5656 C.2       1 <1>         0.5317 
      10 O1         2.4163   -0.8400    4.9771 O.2       1 <1>        -0.4484 
      11 N5         2.0003    1.3364    4.8908 N.am      1 <1>        -0.6061 
      12 C5         0.8929    1.1885    5.6838 C.2       1 <1>         0.2657 
      13 N6         0.5476   -0.0035    6.1337 N.2       1 <1>        -0.2928 
      14 N7        -0.6409    0.0567    6.9622 N.2       1 <1>        -0.2434 
      15 C6        -1.0557    1.2535    7.0410 C.2       1 <1>         0.0321 
      16 S2        -0.1613    2.5189    6.1854 S.3       1 <1>         0.0339 
      17 H1         8.2736    0.8730    6.0139 H         1 <1>         0.0991 
      18 H2         7.4120   -0.2479    7.0904 H         1 <1>         0.1101 
      19 H3         8.3120    1.1242    7.7726 H         1 <1>         0.1039 
      20 H4         3.9529   -0.3282    2.9210 H         1 <1>         0.1424 
      21 H5         3.9345    1.4225    3.2251 H         1 <1>         0.1426 
      22 H6         8.7304   -0.5199    1.8904 H         1 <1>         0.4348 
      23 H7        -1.9358    1.4948    7.6184 H         1 <1>         0.2434 
@<TRIPOS>BOND
       1        1        2 1        
       2        1       17 1        
       3        1       18 1        
       4        1       19 1        
       5        2        6 1        
       6        2        3 1        
       7        3        4 2        
       8        3        7 1        
       9        4        5 1        
      10        5        6 2        
      11        7        8 1        
      12        8        9 1        
      13        8       20 1        
      14        8       21 1        
      15        9       10 2        
      16        9       11 am       
      17       11       12 1        
      18       11       22 1        
      19       12       16 1        
      20       12       13 2        
      21       13       14 1        
      22       14       15 2        
      23       15       16 1        
      24       15       23 1        
@<TRIPOS>SUBSTRUCTURE
 1 **** 1 TEMP 0 **** **** 0 ROOT

