#        1GCZ_R01_S0001_C0000_L00025_S0001_C0002_G0010_E0001.mol2
#        Tue Jun  6 14:21:55 2017
#        Descriptor:     10    22    23    15     6    11
#        Energy - RMSD - RMSD MassCentre:     -36.2657    999.9999    999.9999
#        Receptor:       1  Surface Point:     1  Conformer:     0
#        Ligand:        25  Surface Point:     1  Conformer:     2
#        BUDE Formal Charge: 0
#        ATOM Count: 23
#        Heavy ATOM Count: 16
@<TRIPOS>MOLECULE
ZINC02437791_0_1GCZ_R01_S0001_C0000_L00025_S0001_C0002_G0010_E0001
 23 24 1 0 0
SMALL
USER_CHARGES
INVALID_CHARGES
@<TRIPOS>ATOM
       1 C1         7.3769    1.8760    7.1799 C.3       1 <1>         0.0823 
       2 N1         6.0956    2.5472    6.9187 N.pl3     1 <1>        -0.3597 
       3 C2         5.0819    2.1638    6.0808 C.2       1 <1>         0.1923 
       4 N2         4.0483    2.9830    6.0285 N.2       1 <1>        -0.3372 
       5 N3         4.4171    4.0457    6.9433 N.2       1 <1>        -0.0286 
       6 N4         5.6304    3.8026    7.4754 N.2       1 <1>        -0.0740 
       7 S1         5.2102    0.6615    5.1536 S.3       1 <1>         0.1305 
       8 C3         3.7106    0.4420    4.1458 C.3       1 <1>        -0.1544 
       9 C4         2.5050    0.3565    5.0509 C.2       1 <1>         0.5317 
      10 O1         2.2970   -0.6642    5.7049 O.2       1 <1>        -0.4484 
      11 N5         1.6674    1.3858    5.1411 N.am      1 <1>        -0.6061 
      12 C5         0.5731    1.3098    5.9619 C.2       1 <1>         0.2657 
      13 N6         0.3439    0.2202    6.6709 N.2       1 <1>        -0.2928 
      14 N7        -0.8521    0.3458    7.4810 N.2       1 <1>        -0.2434 
      15 C6        -1.3845    1.4830    7.2965 C.2       1 <1>         0.0321 
      16 S2        -0.6127    2.6075    6.1684 S.3       1 <1>         0.0339 
      17 H1         7.9453    1.8080    6.2547 H         1 <1>         0.0991 
      18 H2         7.1898    0.8761    7.5656 H         1 <1>         0.1101 
      19 H3         7.9426    2.4480    7.9125 H         1 <1>         0.1039 
      20 H4         3.7936   -0.4748    3.5659 H         1 <1>         0.1424 
      21 H5         3.5983    1.2890    3.4722 H         1 <1>         0.1426 
      22 H6         8.5755   -0.4179    2.5398 H         1 <1>         0.4348 
      23 H7        -2.2894    1.7588    7.8174 H         1 <1>         0.2434 
@<TRIPOS>BOND
       1        1        2 1        
       2        1       17 1        
       3        1       18 1        
       4        1       19 1        
       5        2        6 1        
       6        2        3 1        
       7        3        4 2        
       8        3        7 1        
       9        4        5 1        
      10        5        6 2        
      11        7        8 1        
      12        8        9 1        
      13        8       20 1        
      14        8       21 1        
      15        9       10 2        
      16        9       11 am       
      17       11       12 1        
      18       11       22 1        
      19       12       16 1        
      20       12       13 2        
      21       13       14 1        
      22       14       15 2        
      23       15       16 1        
      24       15       23 1        
@<TRIPOS>SUBSTRUCTURE
 1 **** 1 TEMP 0 **** **** 0 ROOT

