#        1GCZ_R01_S0001_C0000_L00025_S0001_C0003_G0010_E0001.mol2
#        Tue Jun  6 14:21:56 2017
#        Descriptor:      1    32     9     6     7     5
#        Energy - RMSD - RMSD MassCentre:     -41.6208    999.9999    999.9999
#        Receptor:       1  Surface Point:     1  Conformer:     0
#        Ligand:        25  Surface Point:     1  Conformer:     3
#        BUDE Formal Charge: 0
#        ATOM Count: 23
#        Heavy ATOM Count: 16
@<TRIPOS>MOLECULE
ZINC02437791_0_1GCZ_R01_S0001_C0000_L00025_S0001_C0003_G0010_E0001
 23 24 1 0 0
SMALL
USER_CHARGES
INVALID_CHARGES
@<TRIPOS>ATOM
       1 C1         2.3405   -0.0305   -2.5446 C.3       1 <1>         0.0823 
       2 N1         1.0471    0.6262   -2.7826 N.pl3     1 <1>        -0.3597 
       3 C2         0.0413    0.8879   -1.8902 C.2       1 <1>         0.1923 
       4 N2        -1.0278    1.4741   -2.3958 N.2       1 <1>        -0.3372 
       5 N3        -0.6961    1.6214   -3.7996 N.2       1 <1>        -0.0286 
       6 N4         0.5297    1.1193   -4.0441 N.2       1 <1>        -0.0740 
       7 S1         0.2208    0.4419   -0.1867 S.3       1 <1>         0.1305 
       8 C3        -1.2789    0.9215    0.7262 C.3       1 <1>        -0.1544 
       9 C4        -1.1258    0.5409    2.1794 C.2       1 <1>         0.5317 
      10 O1        -1.2133   -0.6377    2.5199 O.2       1 <1>        -0.4484 
      11 N5        -0.8959    1.4810    3.0919 N.am      1 <1>        -0.6061 
      12 C5        -0.7567    1.1374    4.4107 C.2       1 <1>         0.2657 
      13 N6        -0.8448   -0.1254    4.7851 N.2       1 <1>        -0.2928 
      14 N7        -0.6566   -0.2781    6.2147 N.2       1 <1>        -0.2434 
      15 C6        -0.4579    0.8551    6.7505 C.2       1 <1>         0.0321 
      16 S2        -0.4495    2.2918    5.7167 S.3       1 <1>         0.0339 
      17 H1         2.1715   -1.0435   -2.1858 H         1 <1>         0.0991 
      18 H2         2.8996    0.5306   -1.7988 H         1 <1>         0.1101 
      19 H3         2.9061   -0.0638   -3.4734 H         1 <1>         0.1039 
      20 H4        -2.1403    0.4065    0.3060 H         1 <1>         0.1424 
      21 H5        -1.4242    1.9968    0.6468 H         1 <1>         0.1426 
      22 H6        -0.9225    0.4100   -4.4311 H         1 <1>         0.4348 
      23 H7        -0.2970    0.9407    7.8149 H         1 <1>         0.2434 
@<TRIPOS>BOND
       1        1        2 1        
       2        1       17 1        
       3        1       18 1        
       4        1       19 1        
       5        2        6 1        
       6        2        3 1        
       7        3        4 2        
       8        3        7 1        
       9        4        5 1        
      10        5        6 2        
      11        7        8 1        
      12        8        9 1        
      13        8       20 1        
      14        8       21 1        
      15        9       10 2        
      16        9       11 am       
      17       11       12 1        
      18       11       22 1        
      19       12       16 1        
      20       12       13 2        
      21       13       14 1        
      22       14       15 2        
      23       15       16 1        
      24       15       23 1        
@<TRIPOS>SUBSTRUCTURE
 1 **** 1 TEMP 0 **** **** 0 ROOT

