#        1GCZ_R01_S0001_C0000_L00026_S0001_C0001_G0010_E0001.mol2
#        Tue Jun  6 10:02:38 2017
#        Descriptor:     16    19    11     8     8     3
#        Energy - RMSD - RMSD MassCentre:     -53.1802    999.9999    999.9999
#        Receptor:       1  Surface Point:     1  Conformer:     0
#        Ligand:        26  Surface Point:     1  Conformer:     1
#        BUDE Formal Charge: 0
#        ATOM Count: 36
#        Heavy ATOM Count: 16
@<TRIPOS>MOLECULE
ZINC02096229_0_1GCZ_R01_S0001_C0000_L00026_S0001_C0001_G0010_E0001
 36 35 1 0 0
SMALL
USER_CHARGES
INVALID_CHARGES
@<TRIPOS>ATOM
       1 C1         0.0012   -0.0001   -5.0005 C.3       1 <1>        -0.6739 
       2 S1         0.6827   -0.0658   -3.3251 S.o2      1 <1>         2.6162 
       3 O1         2.0968   -0.2666   -3.3942 O.2       1 <1>        -0.9566 
       4 O2         0.0831   -1.1476   -2.6076 O.2       1 <1>        -0.9591 
       5 N1         0.3481    1.4400   -2.4986 N.pl3     1 <1>        -1.1210 
       6 C2         0.7890    1.6289   -1.1091 C.3       1 <1>         0.1110 
       7 C3        -0.3318    1.2104   -0.1588 C.3       1 <1>        -0.1273 
       8 C4         0.1266    1.4067    1.2856 C.3       1 <1>        -0.1200 
       9 C5        -0.9943    0.9882    2.2361 C.3       1 <1>        -0.1200 
      10 C6        -0.5359    1.1845    3.6805 C.3       1 <1>        -0.1273 
      11 C7        -1.6566    0.7659    4.6309 C.3       1 <1>         0.1110 
      12 N2        -1.2157    0.9548    6.0204 N.pl3     1 <1>        -1.1210 
      13 S2        -0.4618   -0.3662    6.8857 S.o2      1 <1>         2.6161 
      14 O3        -1.3767   -1.4616    6.9727 O.2       1 <1>        -0.9591 
      15 O4         0.7156   -0.7813    6.1884 O.2       1 <1>        -0.9566 
      16 C8        -0.0155    0.1822    8.5519 C.3       1 <1>        -0.6739 
      17 H1         0.1989   -0.9415   -5.5088 H         1 <1>         0.1263 
      18 H2        -1.0728    0.1658   -4.9482 H         1 <1>         0.1286 
      19 H3         0.4684    0.8144   -5.5496 H         1 <1>         0.1300 
      20 H4        -0.1478    2.1787   -2.9766 H         1 <1>         0.4190 
      21 H5         1.6704    1.0187   -0.9228 H         1 <1>         0.0640 
      22 H6         1.0316    2.6768   -0.9456 H         1 <1>         0.0819 
      23 H7        -1.2125    1.8208   -0.3466 H         1 <1>         0.0741 
      24 H8        -0.5739    0.1626   -0.3237 H         1 <1>         0.0711 
      25 H9         1.0079    0.7963    1.4720 H         1 <1>         0.0667 
      26 H10        0.3693    2.4546    1.4491 H         1 <1>         0.0690 
      27 H11       -1.8750    1.5987    2.0484 H         1 <1>         0.0690 
      28 H12       -1.2365   -0.0596    2.0710 H         1 <1>         0.0667 
      29 H13        0.3454    0.5742    3.8668 H         1 <1>         0.0711 
      30 H14       -0.2932    2.2324    3.8440 H         1 <1>         0.0741 
      31 H15       -2.5374    1.3764    4.4431 H         1 <1>         0.0819 
      32 H16       -1.8988   -0.2818    4.4659 H         1 <1>         0.0640 
      33 H17       -1.3482    1.8469    6.4750 H         1 <1>         0.4190 
      34 H18       -0.9135    0.4861    9.0858 H         1 <1>         0.1286 
      35 H19        0.4653   -0.6350    9.0854 H         1 <1>         0.1300 
      36 H20        0.6696    1.0248    8.4844 H         1 <1>         0.1263 
@<TRIPOS>BOND
       1        1        2 1        
       2        1       17 1        
       3        1       18 1        
       4        1       19 1        
       5        2        3 2        
       6        2        4 2        
       7        2        5 1        
       8        5        6 1        
       9        5       20 1        
      10        6        7 1        
      11        6       21 1        
      12        6       22 1        
      13        7        8 1        
      14        7       23 1        
      15        7       24 1        
      16        8        9 1        
      17        8       25 1        
      18        8       26 1        
      19        9       10 1        
      20        9       27 1        
      21        9       28 1        
      22       10       11 1        
      23       10       29 1        
      24       10       30 1        
      25       11       12 1        
      26       11       31 1        
      27       11       32 1        
      28       12       13 1        
      29       12       33 1        
      30       13       14 2        
      31       13       15 2        
      32       13       16 1        
      33       16       34 1        
      34       16       35 1        
      35       16       36 1        
@<TRIPOS>SUBSTRUCTURE
 1 **** 1 TEMP 0 **** **** 0 ROOT

