#        1GCZ_R01_S0001_C0000_L00026_S0001_C0001_G0010_E0001.mol2
#        Tue Jun  6 14:21:59 2017
#        Descriptor:     24    35    26     6     8    14
#        Energy - RMSD - RMSD MassCentre:     -44.6009    999.9999    999.9999
#        Receptor:       1  Surface Point:     1  Conformer:     0
#        Ligand:        26  Surface Point:     1  Conformer:     1
#        BUDE Formal Charge: 0
#        ATOM Count: 36
#        Heavy ATOM Count: 16
@<TRIPOS>MOLECULE
ZINC02096229_0_1GCZ_R01_S0001_C0000_L00026_S0001_C0001_G0010_E0001
 36 35 1 0 0
SMALL
USER_CHARGES
INVALID_CHARGES
@<TRIPOS>ATOM
       1 C1        -2.0006   -0.0003    5.9990 C.3       1 <1>        -0.6739 
       2 S1        -0.4291   -0.1174    5.1088 S.o2      1 <1>         2.6162 
       3 O1        -0.6750   -0.5279    3.7613 O.2       1 <1>        -0.9566 
       4 O2         0.4138   -1.0768    5.7520 O.2       1 <1>        -0.9591 
       5 N1         0.3594    1.4449    5.1070 N.pl3     1 <1>        -1.1210 
       6 C2         1.6672    1.6068    4.4557 C.3       1 <1>         0.1110 
       7 C3         2.7771    1.3873    5.4826 C.3       1 <1>        -0.1273 
       8 C4         4.1365    1.5555    4.8056 C.3       1 <1>        -0.1200 
       9 C5         5.2466    1.3360    5.8325 C.3       1 <1>        -0.1200 
      10 C6         6.6061    1.5043    5.1555 C.3       1 <1>        -0.1273 
      11 C7         7.7161    1.2847    6.1823 C.3       1 <1>         0.1110 
      12 N2         9.0239    1.4466    5.5311 N.pl3     1 <1>        -1.1210 
      13 S2         9.8457    0.0542    4.8616 S.o2      1 <1>         2.6161 
      14 O3        10.1068   -0.8903    5.9030 O.2       1 <1>        -0.9591 
      15 O4         9.0197   -0.5513    3.8637 O.2       1 <1>        -0.9566 
      16 C8        11.4090    0.5787    4.1154 C.3       1 <1>        -0.6739 
      17 H1        -2.4837   -0.9751    6.0102 H         1 <1>         0.1263 
      18 H2        -1.8147    0.3247    7.0204 H         1 <1>         0.1286 
      19 H3        -2.6462    0.7195    5.5005 H         1 <1>         0.1300 
      20 H4        -0.0845    2.2347    5.5533 H         1 <1>         0.4190 
      21 H5         1.7648    0.8782    3.6536 H         1 <1>         0.0640 
      22 H6         1.7453    2.6114    4.0454 H         1 <1>         0.0819 
      23 H7         2.6778    2.1159    6.2843 H         1 <1>         0.0741 
      24 H8         2.6974    0.3827    5.8927 H         1 <1>         0.0711 
      25 H9         4.2343    0.8268    4.0035 H         1 <1>         0.0667 
      26 H10        4.2147    2.5601    4.3951 H         1 <1>         0.0690 
      27 H11        5.1474    2.0648    6.6342 H         1 <1>         0.0690 
      28 H12        5.1668    0.3315    6.2427 H         1 <1>         0.0667 
      29 H13        6.7038    0.7756    4.3534 H         1 <1>         0.0711 
      30 H14        6.6842    2.5089    4.7451 H         1 <1>         0.0741 
      31 H15        7.6167    2.0135    6.9841 H         1 <1>         0.0819 
      32 H16        7.6363    0.2802    6.5925 H         1 <1>         0.0640 
      33 H17        9.4476    2.3614    5.4704 H         1 <1>         0.4190 
      34 H18       12.0416    1.0280    4.8782 H         1 <1>         0.1286 
      35 H19       11.9137   -0.2849    3.6874 H         1 <1>         0.1300 
      36 H20       11.2099    1.3080    3.3328 H         1 <1>         0.1263 
@<TRIPOS>BOND
       1        1        2 1        
       2        1       17 1        
       3        1       18 1        
       4        1       19 1        
       5        2        3 2        
       6        2        4 2        
       7        2        5 1        
       8        5        6 1        
       9        5       20 1        
      10        6        7 1        
      11        6       21 1        
      12        6       22 1        
      13        7        8 1        
      14        7       23 1        
      15        7       24 1        
      16        8        9 1        
      17        8       25 1        
      18        8       26 1        
      19        9       10 1        
      20        9       27 1        
      21        9       28 1        
      22       10       11 1        
      23       10       29 1        
      24       10       30 1        
      25       11       12 1        
      26       11       31 1        
      27       11       32 1        
      28       12       13 1        
      29       12       33 1        
      30       13       14 2        
      31       13       15 2        
      32       13       16 1        
      33       16       34 1        
      34       16       35 1        
      35       16       36 1        
@<TRIPOS>SUBSTRUCTURE
 1 **** 1 TEMP 0 **** **** 0 ROOT

