#        1GCZ_R01_S0001_C0000_L00026_S0001_C0002_G0010_E0001.mol2
#        Tue Jun  6 10:02:38 2017
#        Descriptor:     33    34    24     7     9     8
#        Energy - RMSD - RMSD MassCentre:     -37.1468    999.9999    999.9999
#        Receptor:       1  Surface Point:     1  Conformer:     0
#        Ligand:        26  Surface Point:     1  Conformer:     2
#        BUDE Formal Charge: 0
#        ATOM Count: 36
#        Heavy ATOM Count: 16
@<TRIPOS>MOLECULE
ZINC02096229_0_1GCZ_R01_S0001_C0000_L00026_S0001_C0002_G0010_E0001
 36 35 1 0 0
SMALL
USER_CHARGES
INVALID_CHARGES
@<TRIPOS>ATOM
       1 C1        -0.9994    0.9992   -0.0007 C.3       1 <1>        -0.6739 
       2 S1        -0.4843    0.0833    1.4729 S.o2      1 <1>         2.6162 
       3 O1         0.3102   -1.0394    1.0817 O.2       1 <1>        -0.9566 
       4 O2        -1.6404   -0.3749    2.1787 O.2       1 <1>        -0.9591 
       5 N1         0.4579    1.1298    2.5119 N.pl3     1 <1>        -1.1210 
       6 C2         0.9818    0.6201    3.7872 C.3       1 <1>         0.1110 
       7 C3         2.3910    0.0694    3.5742 C.3       1 <1>        -0.1273 
       8 C4         2.9356   -0.4603    4.9000 C.3       1 <1>        -0.1200 
       9 C5         4.3448   -1.0111    4.6871 C.3       1 <1>        -0.1200 
      10 C6         4.8893   -1.5409    6.0128 C.3       1 <1>        -0.1273 
      11 C7         6.2986   -2.0916    5.7999 C.3       1 <1>         0.1110 
      12 N2         6.8225   -2.6014    7.0754 N.pl3     1 <1>        -1.1210 
      13 S2         7.7647   -1.5548    8.1143 S.o2      1 <1>         2.6161 
      14 O3         8.9388   -1.1265    7.4194 O.2       1 <1>        -0.9591 
      15 O4         6.9817   -0.4146    8.4773 O.2       1 <1>        -0.9566 
      16 C8         8.2425   -2.4599    9.6072 C.3       1 <1>        -0.6739 
      17 H1        -1.5956    0.3512   -0.6397 H         1 <1>         0.1263 
      18 H2        -1.5928    1.8608    0.2976 H         1 <1>         0.1286 
      19 H3        -0.1189    1.3351   -0.5443 H         1 <1>         0.1300 
      20 H4         0.6415    2.0835    2.2347 H         1 <1>         0.4190 
      21 H5         1.0136    1.4287    4.5145 H         1 <1>         0.0640 
      22 H6         0.3333   -0.1729    4.1539 H         1 <1>         0.0819 
      23 H7         2.3578   -0.7384    2.8464 H         1 <1>         0.0741 
      24 H8         3.0382    0.8631    3.2070 H         1 <1>         0.0711 
      25 H9         2.9675    0.3483    5.6273 H         1 <1>         0.0667 
      26 H10        2.2871   -1.2533    5.2667 H         1 <1>         0.0690 
      27 H11        4.3116   -1.8191    3.9593 H         1 <1>         0.0690 
      28 H12        4.9920   -0.2174    4.3197 H         1 <1>         0.0667 
      29 H13        4.9213   -0.7322    6.7402 H         1 <1>         0.0711 
      30 H14        4.2409   -2.3339    6.3797 H         1 <1>         0.0741 
      31 H15        6.2654   -2.8995    5.0721 H         1 <1>         0.0819 
      32 H16        6.9458   -1.2979    5.4326 H         1 <1>         0.0640 
      33 H17        6.6384   -3.5553    7.3513 H         1 <1>         0.4190 
      34 H18        8.8485   -3.3202    9.3306 H         1 <1>         0.1286 
      35 H19        8.8169   -1.8053   10.2592 H         1 <1>         0.1300 
      36 H20        7.3485   -2.7975   10.1275 H         1 <1>         0.1263 
@<TRIPOS>BOND
       1        1        2 1        
       2        1       17 1        
       3        1       18 1        
       4        1       19 1        
       5        2        3 2        
       6        2        4 2        
       7        2        5 1        
       8        5        6 1        
       9        5       20 1        
      10        6        7 1        
      11        6       21 1        
      12        6       22 1        
      13        7        8 1        
      14        7       23 1        
      15        7       24 1        
      16        8        9 1        
      17        8       25 1        
      18        8       26 1        
      19        9       10 1        
      20        9       27 1        
      21        9       28 1        
      22       10       11 1        
      23       10       29 1        
      24       10       30 1        
      25       11       12 1        
      26       11       31 1        
      27       11       32 1        
      28       12       13 1        
      29       12       33 1        
      30       13       14 2        
      31       13       15 2        
      32       13       16 1        
      33       16       34 1        
      34       16       35 1        
      35       16       36 1        
@<TRIPOS>SUBSTRUCTURE
 1 **** 1 TEMP 0 **** **** 0 ROOT

