#        1GCZ_R01_S0001_C0000_L00026_S0001_C0002_G0010_E0001.mol2
#        Tue Jun  6 14:22:00 2017
#        Descriptor:      3    34    26     9     9     4
#        Energy - RMSD - RMSD MassCentre:     -41.5364    999.9999    999.9999
#        Receptor:       1  Surface Point:     1  Conformer:     0
#        Ligand:        26  Surface Point:     1  Conformer:     2
#        BUDE Formal Charge: 0
#        ATOM Count: 36
#        Heavy ATOM Count: 16
@<TRIPOS>MOLECULE
ZINC02096229_0_1GCZ_R01_S0001_C0000_L00026_S0001_C0002_G0010_E0001
 36 35 1 0 0
SMALL
USER_CHARGES
INVALID_CHARGES
@<TRIPOS>ATOM
       1 C1         1.0008    0.9991   -3.9997 C.3       1 <1>        -0.6739 
       2 S1         0.0157    0.6292   -2.5271 S.o2      1 <1>         2.6162 
       3 O1         0.6075   -0.4645   -1.8212 O.2       1 <1>        -0.9566 
       4 O2        -1.3145    0.2792   -2.9179 O.2       1 <1>        -0.9591 
       5 N1        -0.0319    2.0359   -1.4873 N.pl3     1 <1>        -1.1210 
       6 C2        -0.7877    1.9927   -0.2272 C.3       1 <1>         0.1110 
       7 C3         0.1403    1.5621    0.9077 C.3       1 <1>        -0.1273 
       8 C4        -0.6453    1.5171    2.2175 C.3       1 <1>        -0.1200 
       9 C5         0.2826    1.0865    3.3524 C.3       1 <1>        -0.1200 
      10 C6        -0.5031    1.0415    4.6622 C.3       1 <1>        -0.1273 
      11 C7         0.4249    0.6110    5.7972 C.3       1 <1>         0.1110 
      12 N2        -0.3309    0.5676    7.0573 N.pl3     1 <1>        -1.1210 
      13 S2        -0.3785    1.9744    8.0971 S.o2      1 <1>         2.6161 
      14 O3         0.9490    2.3014    8.5161 O.2       1 <1>        -0.9591 
      15 O4        -0.9384    3.0775    7.3798 O.2       1 <1>        -0.9566 
      16 C8        -1.3994    1.6164    9.5482 C.3       1 <1>        -0.6739 
      17 H1         1.0191    0.1279   -4.6511 H         1 <1>         0.1263 
      18 H2         0.5580    1.8397   -4.5297 H         1 <1>         0.1286 
      19 H3         2.0162    1.2515   -3.7019 H         1 <1>         0.1300 
      20 H4         0.4601    2.8770   -1.7532 H         1 <1>         0.4190 
      21 H5        -1.1903    2.9803   -0.0126 H         1 <1>         0.0640 
      22 H6        -1.6043    1.2796   -0.3193 H         1 <1>         0.0819 
      23 H7         0.5428    0.5748    0.6914 H         1 <1>         0.0741 
      24 H8         0.9567    2.2755    0.9982 H         1 <1>         0.0711 
      25 H9        -1.0480    2.5049    2.4322 H         1 <1>         0.0667 
      26 H10       -1.4620    0.8041    2.1254 H         1 <1>         0.0690 
      27 H11        0.6850    0.0991    3.1362 H         1 <1>         0.0690 
      28 H12        1.0991    1.7999    3.4429 H         1 <1>         0.0667 
      29 H13       -0.9057    2.0293    4.8770 H         1 <1>         0.0711 
      30 H14       -1.3198    0.3285    4.5703 H         1 <1>         0.0741 
      31 H15        0.8273   -0.3763    5.5809 H         1 <1>         0.0819 
      32 H16        1.2414    1.3243    5.8876 H         1 <1>         0.0640 
      33 H17       -0.8223   -0.2740    7.3223 H         1 <1>         0.4190 
      34 H18       -0.9655    0.7850   10.0999 H         1 <1>         0.1286 
      35 H19       -1.4399    2.4953   10.1881 H         1 <1>         0.1300 
      36 H20       -2.4053    1.3540    9.2273 H         1 <1>         0.1263 
@<TRIPOS>BOND
       1        1        2 1        
       2        1       17 1        
       3        1       18 1        
       4        1       19 1        
       5        2        3 2        
       6        2        4 2        
       7        2        5 1        
       8        5        6 1        
       9        5       20 1        
      10        6        7 1        
      11        6       21 1        
      12        6       22 1        
      13        7        8 1        
      14        7       23 1        
      15        7       24 1        
      16        8        9 1        
      17        8       25 1        
      18        8       26 1        
      19        9       10 1        
      20        9       27 1        
      21        9       28 1        
      22       10       11 1        
      23       10       29 1        
      24       10       30 1        
      25       11       12 1        
      26       11       31 1        
      27       11       32 1        
      28       12       13 1        
      29       12       33 1        
      30       13       14 2        
      31       13       15 2        
      32       13       16 1        
      33       16       34 1        
      34       16       35 1        
      35       16       36 1        
@<TRIPOS>SUBSTRUCTURE
 1 **** 1 TEMP 0 **** **** 0 ROOT

