#        1GCZ_R01_S0001_C0000_L00003_S0001_C0044_G0010_E0001.mol2
#        Tue Jun  6 09:55:13 2017
#        Descriptor:     22    33    15     7     9    14
#        Energy - RMSD - RMSD MassCentre:     -65.1142    999.9999    999.9999
#        Receptor:       1  Surface Point:     1  Conformer:     0
#        Ligand:         3  Surface Point:     1  Conformer:    44
#        BUDE Formal Charge: 0
#        ATOM Count: 58
#        Heavy ATOM Count: 30
@<TRIPOS>MOLECULE
ZINC61580633_1GCZ_R01_S0001_C0000_L00003_S0001_C0044_G0010_E0001
 58 59 0 0 0
SMALL
USER_CHARGES
@<TRIPOS>ATOM
       1 C1        -0.7127    2.1010   -3.0176 C.3       1 <0>        -0.1532 
       2 C2        -1.1096    0.8764   -2.1983 C.3       1 <0>        -0.1224 
       3 C3        -0.2571    0.8138   -0.9318 C.3       1 <0>        -0.1198 
       4 C4        -0.6544   -0.4124   -0.1113 C.3       1 <0>         0.0610 
       5 O1         0.1435   -0.4709    1.0739 O.3       1 <0>        -0.3878 
       6 C5        -0.0412    0.6816    1.9002 C.3       1 <0>         0.0487 
       7 C6         0.8350    0.5597    3.1459 C.3       1 <0>         0.1244 
       8 N1         0.6452    1.7443    3.9953 N.am      1 <0>        -0.7216 
       9 C7         1.3125    1.8548    5.1405 C.2       1 <0>         0.5161 
      10 O2         1.1546    2.8454    5.8521 O.2       1 <0>        -0.5151 
      11 C8         2.2645    0.7632    5.5673 C.3       1 <0>         0.0490 
      12 O3         1.5205   -0.4059    5.9202 O.3       1 <0>        -0.3194 
      13 C9         0.6704   -0.3239    6.9657 C.2       1 <0>         0.5417 
      14 O4         0.5547    0.7250    7.5781 O.2       1 <0>        -0.5337 
      15 C10       -0.1218   -1.5069    7.3693 C.2       1 <0>        -0.2559 
      16 C11       -0.0689   -2.8204    6.6893 C.2       1 <0>        -0.0791 
      17 C12       -0.8920   -3.7136    7.2433 C.2       1 <0>        -0.2585 
      18 S1        -1.7866   -3.0548    8.6211 S.3       1 <0>         0.3028 
      19 C13       -0.9826   -1.4942    8.3961 C.2       1 <0>         0.0893 
      20 N2        -1.1954   -0.3742    9.1558 N.am      1 <0>        -0.6099 
      21 C14       -2.0602   -0.4090   10.1657 C.2       1 <0>         0.5551 
      22 O5        -2.6693   -1.4474   10.4178 O.2       1 <0>        -0.4939 
      23 C15       -2.2889    0.8018   10.9854 C.ar      1 <0>        -0.1466 
      24 C16       -3.2101    0.7215   12.0366 C.ar      1 <0>        -0.0772 
      25 C17       -3.5235    1.8521   12.8003 C.ar      1 <0>        -0.1241 
      26 C18       -2.9283    3.0876   12.5202 C.ar      1 <0>        -0.0446 
      27 C19       -1.9675    3.1591   11.5044 C.ar      1 <0>        -0.1261 
      28 C20       -1.6354    2.0196   10.7621 C.ar      1 <0>        -0.0460 
      29 C21       -3.3258    4.3085   13.3152 C.3       1 <0>        -0.0928 
      30 C22       -4.4938    5.0062   12.6241 C.3       1 <0>        -0.1485 
      31 H1         0.3347    2.0227   -3.3015 H         1 <0>         0.0567 
      32 H2        -0.8613    2.9989   -2.4217 H         1 <0>         0.0554 
      33 H3        -1.3289    2.1529   -3.9128 H         1 <0>         0.0557 
      34 H4        -2.1602    0.9475   -1.9243 H         1 <0>         0.0632 
      35 H5        -0.9481   -0.0235   -2.7882 H         1 <0>         0.0635 
      36 H6         0.7937    0.7420   -1.2043 H         1 <0>         0.0711 
      37 H7        -0.4184    1.7128   -0.3405 H         1 <0>         0.0704 
      38 H8        -1.7050   -0.3414    0.1626 H         1 <0>         0.0498 
      39 H9        -0.4928   -1.3122   -0.7013 H         1 <0>         0.0505 
      40 H10       -1.0854    0.7521    2.1976 H         1 <0>         0.0584 
      41 H11        0.2398    1.5747    1.3460 H         1 <0>         0.0702 
      42 H12        1.8796    0.4900    2.8500 H         1 <0>         0.0872 
      43 H13        0.5544   -0.3327    3.7015 H         1 <0>         0.0805 
      44 H14        0.0084    2.4744    3.7098 H         1 <0>         0.4058 
      45 H15        2.9397    0.5286    4.7471 H         1 <0>         0.1008 
      46 H16        2.8403    1.0991    6.4272 H         1 <0>         0.0999 
      47 H17        0.5798   -3.0156    5.8482 H         1 <0>         0.1557 
      48 H18       -0.9805   -4.7287    6.8856 H         1 <0>         0.1929 
      49 H19       -0.6953    0.4785    8.9489 H         1 <0>         0.4317 
      50 H20       -3.6889   -0.2205   12.2598 H         1 <0>         0.1287 
      51 H21       -4.2310    1.7767   13.6127 H         1 <0>         0.1326 
      52 H22       -1.4838    4.1039   11.3048 H         1 <0>         0.1342 
      53 H23       -0.8458    2.1216   10.0324 H         1 <0>         0.1410 
      54 H24       -2.4806    4.9907   13.3777 H         1 <0>         0.0777 
      55 H25       -3.6240    4.0068   14.3170 H         1 <0>         0.0771 
      56 H26       -5.3423    4.3272   12.5734 H         1 <0>         0.0623 
      57 H27       -4.1988    5.2948   11.6174 H         1 <0>         0.0572 
      58 H28       -4.7714    5.8931   13.1897 H         1 <0>         0.0578 
@<TRIPOS>BOND
       1        1        2 1        
       2        1       31 1        
       3        1       32 1        
       4        1       33 1        
       5        2        3 1        
       6        2       34 1        
       7        2       35 1        
       8        3        4 1        
       9        3       36 1        
      10        3       37 1        
      11        4        5 1        
      12        4       38 1        
      13        4       39 1        
      14        5        6 1        
      15        6        7 1        
      16        6       40 1        
      17        6       41 1        
      18        7        8 1        
      19        7       42 1        
      20        7       43 1        
      21        8        9 am       
      22        8       44 1        
      23        9       10 2        
      24        9       11 1        
      25       11       12 1        
      26       11       45 1        
      27       11       46 1        
      28       12       13 1        
      29       13       14 2        
      30       13       15 1        
      31       15       19 2        
      32       15       16 1        
      33       16       17 2        
      34       16       47 1        
      35       17       18 1        
      36       17       48 1        
      37       18       19 1        
      38       19       20 1        
      39       20       21 am       
      40       20       49 1        
      41       21       22 2        
      42       21       23 1        
      43       23       28 ar       
      44       23       24 ar       
      45       24       25 ar       
      46       24       50 1        
      47       25       26 ar       
      48       25       51 1        
      49       26       27 ar       
      50       26       29 1        
      51       27       28 ar       
      52       27       52 1        
      53       28       53 1        
      54       29       30 1        
      55       29       54 1        
      56       29       55 1        
      57       30       56 1        
      58       30       57 1        
      59       30       58 1        

