#        1GCZ_R01_S0001_C0000_L00026_S0001_C0003_G0010_E0001.mol2
#        Tue Jun  6 10:02:39 2017
#        Descriptor:     33    33    28     6     9     9
#        Energy - RMSD - RMSD MassCentre:     -44.1298    999.9999    999.9999
#        Receptor:       1  Surface Point:     1  Conformer:     0
#        Ligand:        26  Surface Point:     1  Conformer:     3
#        BUDE Formal Charge: 0
#        ATOM Count: 36
#        Heavy ATOM Count: 16
@<TRIPOS>MOLECULE
ZINC02096229_0_1GCZ_R01_S0001_C0000_L00026_S0001_C0003_G0010_E0001
 36 35 1 0 0
SMALL
USER_CHARGES
INVALID_CHARGES
@<TRIPOS>ATOM
       1 C1        -1.9990    0.9999    0.9992 C.3       1 <1>        -0.6739 
       2 S1        -0.9727    0.3853    2.3574 S.o2      1 <1>         2.6162 
       3 O1         0.3443    0.1115    1.8724 O.2       1 <1>        -0.9566 
       4 O2        -1.5451   -0.8148    2.8833 O.2       1 <1>        -0.9591 
       5 N1        -0.8886    1.5944    3.6198 N.pl3     1 <1>        -1.1210 
       6 C2        -0.1217    1.3253    4.8446 C.3       1 <1>         0.1110 
       7 C3         1.3060    1.8423    4.6744 C.3       1 <1>        -0.1273 
       8 C4         2.1031    1.5626    5.9477 C.3       1 <1>        -0.1200 
       9 C5         3.5309    2.0795    5.7775 C.3       1 <1>        -0.1200 
      10 C6         4.3280    1.7997    7.0507 C.3       1 <1>        -0.1273 
      11 C7         5.7558    2.3168    6.8806 C.3       1 <1>         0.1110 
      12 N2         6.3969    1.6215    5.7552 N.pl3     1 <1>        -1.1210 
      13 S2         7.3286    0.1682    6.0418 S.o2      1 <1>         2.6161 
      14 O3         8.4214    0.4679    6.9141 O.2       1 <1>        -0.9591 
      15 O4         6.4924   -0.8217    6.6464 O.2       1 <1>        -0.9566 
      16 C8         7.9661   -0.4586    4.4679 C.3       1 <1>        -0.6739 
      17 H1        -2.0607    0.2424    0.2208 H         1 <1>         0.1263 
      18 H2        -2.9973    1.2208    1.3711 H         1 <1>         0.1286 
      19 H3        -1.5549    1.9052    0.5909 H         1 <1>         0.1300 
      20 H4        -1.3670    2.4766    3.5062 H         1 <1>         0.4190 
      21 H5        -0.5933    1.8301    5.6852 H         1 <1>         0.0640 
      22 H6        -0.1004    0.2534    5.0302 H         1 <1>         0.0819 
      23 H7         1.7759    1.3373    3.8333 H         1 <1>         0.0741 
      24 H8         1.2831    2.9140    4.4883 H         1 <1>         0.0711 
      25 H9         1.6316    2.0675    6.7883 H         1 <1>         0.0667 
      26 H10        2.1244    0.4907    6.1332 H         1 <1>         0.0690 
      27 H11        4.0009    1.5744    4.9363 H         1 <1>         0.0690 
      28 H12        3.5080    3.1512    5.5912 H         1 <1>         0.0667 
      29 H13        3.8566    2.3047    7.8914 H         1 <1>         0.0711 
      30 H14        4.3494    0.7279    7.2364 H         1 <1>         0.0741 
      31 H15        5.7323    3.3860    6.6812 H         1 <1>         0.0819 
      32 H16        6.3197    2.1295    7.7921 H         1 <1>         0.0640 
      33 H17        6.2993    1.9829    4.8171 H         1 <1>         0.4190 
      34 H18        8.6121    0.2906    4.0149 H         1 <1>         0.1286 
      35 H19        8.5342   -1.3695    4.6444 H         1 <1>         0.1300 
      36 H20        7.1343   -0.6729    3.8000 H         1 <1>         0.1263 
@<TRIPOS>BOND
       1        1        2 1        
       2        1       17 1        
       3        1       18 1        
       4        1       19 1        
       5        2        3 2        
       6        2        4 2        
       7        2        5 1        
       8        5        6 1        
       9        5       20 1        
      10        6        7 1        
      11        6       21 1        
      12        6       22 1        
      13        7        8 1        
      14        7       23 1        
      15        7       24 1        
      16        8        9 1        
      17        8       25 1        
      18        8       26 1        
      19        9       10 1        
      20        9       27 1        
      21        9       28 1        
      22       10       11 1        
      23       10       29 1        
      24       10       30 1        
      25       11       12 1        
      26       11       31 1        
      27       11       32 1        
      28       12       13 1        
      29       12       33 1        
      30       13       14 2        
      31       13       15 2        
      32       13       16 1        
      33       16       34 1        
      34       16       35 1        
      35       16       36 1        
@<TRIPOS>SUBSTRUCTURE
 1 **** 1 TEMP 0 **** **** 0 ROOT

