#        1GCZ_R01_S0001_C0000_L00026_S0001_C0003_G0010_E0001.mol2
#        Tue Jun  6 14:22:01 2017
#        Descriptor:     14    20     9     7     9    10
#        Energy - RMSD - RMSD MassCentre:     -38.8659    999.9999    999.9999
#        Receptor:       1  Surface Point:     1  Conformer:     0
#        Ligand:        26  Surface Point:     1  Conformer:     3
#        BUDE Formal Charge: 0
#        ATOM Count: 36
#        Heavy ATOM Count: 16
@<TRIPOS>MOLECULE
ZINC02096229_0_1GCZ_R01_S0001_C0000_L00026_S0001_C0003_G0010_E0001
 36 35 1 0 0
SMALL
USER_CHARGES
INVALID_CHARGES
@<TRIPOS>ATOM
       1 C1        -0.9992    0.9997    1.9991 C.3       1 <1>        -0.6739 
       2 S1         0.1634    0.5258    3.3028 S.o2      1 <1>         2.6162 
       3 O1         1.3642    0.0241    2.7102 O.2       1 <1>        -0.9566 
       4 O2        -0.4239   -0.4897    4.1205 O.2       1 <1>        -0.9591 
       5 N1         0.5394    1.9232    4.2869 N.pl3     1 <1>        -1.1210 
       6 C2         1.4559    1.7924    5.4286 C.3       1 <1>         0.1110 
       7 C3         2.8807    2.1075    4.9755 C.3       1 <1>        -0.1273 
       8 C4         3.8334    1.9716    6.1624 C.3       1 <1>        -0.1200 
       9 C5         5.2582    2.2866    5.7094 C.3       1 <1>        -0.1200 
      10 C6         6.2109    2.1506    6.8963 C.3       1 <1>        -0.1273 
      11 C7         7.6358    2.4657    6.4432 C.3       1 <1>         0.1110 
      12 N2         8.0385    1.5137    5.3981 N.pl3     1 <1>        -1.1210 
      13 S2         8.8751    0.0396    5.8334 S.o2      1 <1>         2.6161 
      14 O3        10.1082    0.3655    6.4801 O.2       1 <1>        -0.9591 
      15 O4         8.0577   -0.7268    6.7220 O.2       1 <1>        -0.9566 
      16 C8         9.2126   -0.9251    4.3395 C.3       1 <1>        -0.6739 
      17 H1        -1.2418    0.1274    1.3960 H         1 <1>         0.1263 
      18 H2        -1.9076    1.3937    2.4498 H         1 <1>         0.1286 
      19 H3        -0.5457    1.7621    1.3694 H         1 <1>         0.1300 
      20 H4         0.1266    2.8191    4.0698 H         1 <1>         0.4190 
      21 H5         1.1610    2.4885    6.2111 H         1 <1>         0.0640 
      22 H6         1.4132    0.7752    5.8124 H         1 <1>         0.0819 
      23 H7         3.1739    1.4114    4.1927 H         1 <1>         0.0741 
      24 H8         2.9218    3.1246    4.5914 H         1 <1>         0.0711 
      25 H9         3.5386    2.6677    6.9449 H         1 <1>         0.0667 
      26 H10        3.7906    0.9544    6.5462 H         1 <1>         0.0690 
      27 H11        5.5515    1.5902    4.9266 H         1 <1>         0.0690 
      28 H12        5.2994    3.3037    5.3251 H         1 <1>         0.0667 
      29 H13        5.9162    2.8468    7.6788 H         1 <1>         0.0711 
      30 H14        6.1682    1.1334    7.2802 H         1 <1>         0.0741 
      31 H15        7.6741    3.4781    6.0468 H         1 <1>         0.0819 
      32 H16        8.3122    2.3818    7.2913 H         1 <1>         0.0640 
      33 H17        7.8323    1.7108    4.4292 H         1 <1>         0.4190 
      34 H18        9.8448   -0.3458    3.6698 H         1 <1>         0.1286 
      35 H19        9.7209   -1.8477    4.6115 H         1 <1>         0.1300 
      36 H20        8.2747   -1.1603    3.8408 H         1 <1>         0.1263 
@<TRIPOS>BOND
       1        1        2 1        
       2        1       17 1        
       3        1       18 1        
       4        1       19 1        
       5        2        3 2        
       6        2        4 2        
       7        2        5 1        
       8        5        6 1        
       9        5       20 1        
      10        6        7 1        
      11        6       21 1        
      12        6       22 1        
      13        7        8 1        
      14        7       23 1        
      15        7       24 1        
      16        8        9 1        
      17        8       25 1        
      18        8       26 1        
      19        9       10 1        
      20        9       27 1        
      21        9       28 1        
      22       10       11 1        
      23       10       29 1        
      24       10       30 1        
      25       11       12 1        
      26       11       31 1        
      27       11       32 1        
      28       12       13 1        
      29       12       33 1        
      30       13       14 2        
      31       13       15 2        
      32       13       16 1        
      33       16       34 1        
      34       16       35 1        
      35       16       36 1        
@<TRIPOS>SUBSTRUCTURE
 1 **** 1 TEMP 0 **** **** 0 ROOT

