#        1GCZ_R01_S0001_C0000_L00026_S0001_C0004_G0010_E0001.mol2
#        Tue Jun  6 14:22:02 2017
#        Descriptor:     28    36    29     5     7    11
#        Energy - RMSD - RMSD MassCentre:     -35.5484    999.9999    999.9999
#        Receptor:       1  Surface Point:     1  Conformer:     0
#        Ligand:        26  Surface Point:     1  Conformer:     4
#        BUDE Formal Charge: 0
#        ATOM Count: 36
#        Heavy ATOM Count: 16
@<TRIPOS>MOLECULE
ZINC02096229_0_1GCZ_R01_S0001_C0000_L00026_S0001_C0004_G0010_E0001
 36 35 1 0 0
SMALL
USER_CHARGES
INVALID_CHARGES
@<TRIPOS>ATOM
       1 C1        -2.9996   -1.0005    2.9989 C.3       1 <1>        -0.6739 
       2 S1        -1.3251   -0.3904    3.3143 S.o2      1 <1>         2.6162 
       3 O1        -0.4629   -0.7939    2.2473 O.2       1 <1>        -0.9566 
       4 O2        -0.8433   -0.9329    4.5464 O.2       1 <1>        -0.9591 
       5 N1        -1.3488    1.3566    3.4148 N.pl3     1 <1>        -1.1210 
       6 C2        -0.1055    2.0939    3.6818 C.3       1 <1>         0.1110 
       7 C3         0.0423    2.3128    5.1867 C.3       1 <1>        -0.1273 
       8 C4         1.3348    3.0792    5.4643 C.3       1 <1>        -0.1200 
       9 C5         1.4827    3.2983    6.9694 C.3       1 <1>        -0.1200 
      10 C6         2.7752    4.0647    7.2470 C.3       1 <1>        -0.1273 
      11 C7         2.9232    4.2837    8.7519 C.3       1 <1>         0.1110 
      12 N2         1.7859    5.0737    9.2453 N.pl3     1 <1>        -1.1210 
      13 S2         1.9047    6.8175    9.3322 S.o2      1 <1>         2.6161 
      14 O3         2.9694    7.1784   10.2161 O.2       1 <1>        -0.9591 
      15 O4         2.1680    7.3420    8.0282 O.2       1 <1>        -0.9566 
      16 C8         0.3467    7.4971    9.9539 C.3       1 <1>        -0.6739 
      17 H1        -2.9855   -2.0872    2.9492 H         1 <1>         0.1263 
      18 H2        -3.6585   -0.6822    3.8040 H         1 <1>         0.1286 
      19 H3        -3.3595   -0.5982    2.0544 H         1 <1>         0.1300 
      20 H4        -2.2168    1.8575    3.2891 H         1 <1>         0.4190 
      21 H5         0.7421    1.5199    3.3130 H         1 <1>         0.0640 
      22 H6        -0.1398    3.0566    3.1762 H         1 <1>         0.0819 
      23 H7        -0.8060    2.8861    5.5542 H         1 <1>         0.0741 
      24 H8         0.0758    1.3495    5.6912 H         1 <1>         0.0711 
      25 H9         2.1825    2.5052    5.0957 H         1 <1>         0.0667 
      26 H10        1.3006    4.0420    4.9587 H         1 <1>         0.0690 
      27 H11        0.6344    3.8717    7.3369 H         1 <1>         0.0690 
      28 H12        1.5161    2.3349    7.4738 H         1 <1>         0.0667 
      29 H13        3.6228    3.4907    6.8783 H         1 <1>         0.0711 
      30 H14        2.7409    5.0274    6.7413 H         1 <1>         0.0741 
      31 H15        2.9431    3.3206    9.2577 H         1 <1>         0.0819 
      32 H16        3.8500    4.8178    8.9507 H         1 <1>         0.0640 
      33 H17        0.9365    4.6097    9.5341 H         1 <1>         0.4190 
      34 H18        0.1537    7.1069   10.9511 H         1 <1>         0.1286 
      35 H19        0.4159    8.5821    9.9954 H         1 <1>         0.1300 
      36 H20       -0.4648    7.2099    9.2882 H         1 <1>         0.1263 
@<TRIPOS>BOND
       1        1        2 1        
       2        1       17 1        
       3        1       18 1        
       4        1       19 1        
       5        2        3 2        
       6        2        4 2        
       7        2        5 1        
       8        5        6 1        
       9        5       20 1        
      10        6        7 1        
      11        6       21 1        
      12        6       22 1        
      13        7        8 1        
      14        7       23 1        
      15        7       24 1        
      16        8        9 1        
      17        8       25 1        
      18        8       26 1        
      19        9       10 1        
      20        9       27 1        
      21        9       28 1        
      22       10       11 1        
      23       10       29 1        
      24       10       30 1        
      25       11       12 1        
      26       11       31 1        
      27       11       32 1        
      28       12       13 1        
      29       12       33 1        
      30       13       14 2        
      31       13       15 2        
      32       13       16 1        
      33       16       34 1        
      34       16       35 1        
      35       16       36 1        
@<TRIPOS>SUBSTRUCTURE
 1 **** 1 TEMP 0 **** **** 0 ROOT

