#        1GCZ_R01_S0001_C0000_L00026_S0001_C0005_G0010_E0001.mol2
#        Tue Jun  6 10:02:40 2017
#        Descriptor:     33    22     5     9     6    15
#        Energy - RMSD - RMSD MassCentre:     -37.7823    999.9999    999.9999
#        Receptor:       1  Surface Point:     1  Conformer:     0
#        Ligand:        26  Surface Point:     1  Conformer:     5
#        BUDE Formal Charge: 0
#        ATOM Count: 36
#        Heavy ATOM Count: 16
@<TRIPOS>MOLECULE
ZINC02096229_0_1GCZ_R01_S0001_C0000_L00026_S0001_C0005_G0010_E0001
 36 35 1 0 0
SMALL
USER_CHARGES
INVALID_CHARGES
@<TRIPOS>ATOM
       1 C1         0.9987   -2.0000    7.0000 C.3       1 <1>        -0.6739 
       2 S1         0.9544   -0.6465    5.7993 S.o2      1 <1>         2.6162 
       3 O1        -0.4053   -0.3231    5.4969 O.2       1 <1>        -0.9566 
       4 O2         1.6255   -1.0479    4.6022 O.2       1 <1>        -0.9591 
       5 N1         1.7512    0.7585    6.4727 N.pl3     1 <1>        -1.1210 
       6 C2         1.8607    1.9913    5.6796 C.3       1 <1>         0.1110 
       7 C3         3.1823    1.9867    4.9129 C.3       1 <1>        -0.1273 
       8 C4         4.3446    1.9306    5.9033 C.3       1 <1>        -0.1200 
       9 C5         5.6662    1.9260    5.1365 C.3       1 <1>        -0.1200 
      10 C6         6.8285    1.8699    6.1269 C.3       1 <1>        -0.1273 
      11 C7         8.1501    1.8654    5.3600 C.3       1 <1>         0.1110 
      12 N2         9.2682    1.8114    6.3128 N.pl3     1 <1>        -1.1210 
      13 S2         9.9392    0.2663    6.7869 S.o2      1 <1>         2.6161 
      14 O3         8.9250   -0.5191    7.4188 O.2       1 <1>        -0.9591 
      15 O4        10.4212   -0.4189    5.6280 O.2       1 <1>        -0.9566 
      16 C8        11.3058    0.5325    7.9435 C.3       1 <1>        -0.6739 
      17 H1         0.5142   -2.8766    6.5753 H         1 <1>         0.1263 
      18 H2         2.0330   -2.2372    7.2401 H         1 <1>         0.1286 
      19 H3         0.4757   -1.6984    7.9049 H         1 <1>         0.1300 
      20 H4         2.1354    0.7219    7.4060 H         1 <1>         0.4190 
      21 H5         1.0325    2.0439    4.9760 H         1 <1>         0.0640 
      22 H6         1.8287    2.8528    6.3433 H         1 <1>         0.0819 
      23 H7         3.2191    1.1173    4.2600 H         1 <1>         0.0741 
      24 H8         3.2575    2.8930    4.3156 H         1 <1>         0.0711 
      25 H9         4.3063    2.8002    6.5560 H         1 <1>         0.0667 
      26 H10        4.2679    1.0244    6.5004 H         1 <1>         0.0690 
      27 H11        5.7030    1.0565    4.4836 H         1 <1>         0.0690 
      28 H12        5.7413    2.8323    4.5390 H         1 <1>         0.0667 
      29 H13        6.7902    2.7396    6.7796 H         1 <1>         0.0711 
      30 H14        6.7517    0.9638    6.7241 H         1 <1>         0.0741 
      31 H15        8.1869    0.9959    4.7071 H         1 <1>         0.0819 
      32 H16        8.2252    2.7717    4.7627 H         1 <1>         0.0640 
      33 H17        9.6486    2.6662    6.6935 H         1 <1>         0.4190 
      34 H18       10.9354    1.0428    8.8302 H         1 <1>         0.1286 
      35 H19       11.7316   -0.4274    8.2280 H         1 <1>         0.1300 
      36 H20       12.0704    1.1420    7.4664 H         1 <1>         0.1263 
@<TRIPOS>BOND
       1        1        2 1        
       2        1       17 1        
       3        1       18 1        
       4        1       19 1        
       5        2        3 2        
       6        2        4 2        
       7        2        5 1        
       8        5        6 1        
       9        5       20 1        
      10        6        7 1        
      11        6       21 1        
      12        6       22 1        
      13        7        8 1        
      14        7       23 1        
      15        7       24 1        
      16        8        9 1        
      17        8       25 1        
      18        8       26 1        
      19        9       10 1        
      20        9       27 1        
      21        9       28 1        
      22       10       11 1        
      23       10       29 1        
      24       10       30 1        
      25       11       12 1        
      26       11       31 1        
      27       11       32 1        
      28       12       13 1        
      29       12       33 1        
      30       13       14 2        
      31       13       15 2        
      32       13       16 1        
      33       16       34 1        
      34       16       35 1        
      35       16       36 1        
@<TRIPOS>SUBSTRUCTURE
 1 **** 1 TEMP 0 **** **** 0 ROOT

