#        1GCZ_R01_S0001_C0000_L00026_S0001_C0005_G0010_E0001.mol2
#        Tue Jun  6 14:22:04 2017
#        Descriptor:     19    13    11    15     7    14
#        Energy - RMSD - RMSD MassCentre:     -37.8421    999.9999    999.9999
#        Receptor:       1  Surface Point:     1  Conformer:     0
#        Ligand:        26  Surface Point:     1  Conformer:     5
#        BUDE Formal Charge: 0
#        ATOM Count: 36
#        Heavy ATOM Count: 16
@<TRIPOS>MOLECULE
ZINC02096229_0_1GCZ_R01_S0001_C0000_L00026_S0001_C0005_G0010_E0001
 36 35 1 0 0
SMALL
USER_CHARGES
INVALID_CHARGES
@<TRIPOS>ATOM
       1 C1         7.0011   -0.9999    6.0006 C.3       1 <1>        -0.6739 
       2 S1         6.2377    0.1756    7.1457 S.o2      1 <1>         2.6162 
       3 O1         7.2124    0.6172    8.0942 O.2       1 <1>        -0.9566 
       4 O2         5.1582   -0.4610    7.8342 O.2       1 <1>        -0.9591 
       5 N1         5.6298    1.5517    6.2517 N.pl3     1 <1>        -1.1210 
       6 C2         4.9479    2.6445    6.9598 C.3       1 <1>         0.1110 
       7 C3         3.4436    2.3775    6.9783 C.3       1 <1>        -0.1273 
       8 C4         2.9205    2.3149    5.5440 C.3       1 <1>        -0.1200 
       9 C5         1.4162    2.0480    5.5626 C.3       1 <1>        -0.1200 
      10 C6         0.8932    1.9854    4.1282 C.3       1 <1>        -0.1273 
      11 C7        -0.6112    1.7184    4.1468 C.3       1 <1>         0.1110 
      12 N2        -1.1144    1.6583    2.7670 N.pl3     1 <1>        -1.1210 
      13 S2        -1.2044    0.1212    1.9354 S.o2      1 <1>         2.6161 
      14 O3         0.1054   -0.4441    1.8371 O.2       1 <1>        -0.9591 
      15 O4        -2.0541   -0.7665    2.6667 O.2       1 <1>        -0.9566 
      16 C8        -1.8799    0.3733    0.2751 C.3       1 <1>        -0.6739 
      17 H1         7.3673   -1.8606    6.5562 H         1 <1>         0.1263 
      18 H2         6.2629   -1.3258    5.2709 H         1 <1>         0.1286 
      19 H3         7.8310   -0.5186    5.4877 H         1 <1>         0.1300 
      20 H4         5.7480    1.5946    5.2495 H         1 <1>         0.4190 
      21 H5         5.3195    2.7018    7.9808 H         1 <1>         0.0640 
      22 H6         5.1437    3.5848    6.4487 H         1 <1>         0.0819 
      23 H7         3.2502    1.4303    7.4771 H         1 <1>         0.0741 
      24 H8         2.9402    3.1796    7.5139 H         1 <1>         0.0711 
      25 H9         3.1152    3.2626    5.0461 H         1 <1>         0.0667 
      26 H10        3.4253    1.5131    5.0093 H         1 <1>         0.0690 
      27 H11        1.2228    1.1006    6.0614 H         1 <1>         0.0690 
      28 H12        0.9127    2.8501    6.0983 H         1 <1>         0.0667 
      29 H13        1.0878    2.9331    3.6302 H         1 <1>         0.0711 
      30 H14        1.3980    1.1837    3.5934 H         1 <1>         0.0741 
      31 H15       -0.8047    0.7711    4.6457 H         1 <1>         0.0819 
      32 H16       -1.1147    2.5206    4.6825 H         1 <1>         0.0640 
      33 H17       -1.4079    2.5042    2.2995 H         1 <1>         0.4190 
      34 H18       -1.2260    1.0389   -0.2845 H         1 <1>         0.1286 
      35 H19       -1.9483   -0.5841   -0.2371 H         1 <1>         0.1300 
      36 H20       -2.8707    0.8164    0.3509 H         1 <1>         0.1263 
@<TRIPOS>BOND
       1        1        2 1        
       2        1       17 1        
       3        1       18 1        
       4        1       19 1        
       5        2        3 2        
       6        2        4 2        
       7        2        5 1        
       8        5        6 1        
       9        5       20 1        
      10        6        7 1        
      11        6       21 1        
      12        6       22 1        
      13        7        8 1        
      14        7       23 1        
      15        7       24 1        
      16        8        9 1        
      17        8       25 1        
      18        8       26 1        
      19        9       10 1        
      20        9       27 1        
      21        9       28 1        
      22       10       11 1        
      23       10       29 1        
      24       10       30 1        
      25       11       12 1        
      26       11       31 1        
      27       11       32 1        
      28       12       13 1        
      29       12       33 1        
      30       13       14 2        
      31       13       15 2        
      32       13       16 1        
      33       16       34 1        
      34       16       35 1        
      35       16       36 1        
@<TRIPOS>SUBSTRUCTURE
 1 **** 1 TEMP 0 **** **** 0 ROOT

