#        1GCZ_R01_S0001_C0000_L00026_S0001_C0006_G0010_E0001.mol2
#        Tue Jun  6 10:02:40 2017
#        Descriptor:      8    33    24    10     7     4
#        Energy - RMSD - RMSD MassCentre:     -51.4912    999.9999    999.9999
#        Receptor:       1  Surface Point:     1  Conformer:     0
#        Ligand:        26  Surface Point:     1  Conformer:     6
#        BUDE Formal Charge: 0
#        ATOM Count: 36
#        Heavy ATOM Count: 16
@<TRIPOS>MOLECULE
ZINC02096229_0_1GCZ_R01_S0001_C0000_L00026_S0001_C0006_G0010_E0001
 36 35 1 0 0
SMALL
USER_CHARGES
INVALID_CHARGES
@<TRIPOS>ATOM
       1 C1         1.9996   -1.0010   -3.9994 C.3       1 <1>        -0.6739 
       2 S1         0.3778   -0.2449   -3.7278 S.o2      1 <1>         2.6162 
       3 O1        -0.4532   -1.1508   -2.9975 O.2       1 <1>        -0.9566 
       4 O2        -0.2301    0.0472   -4.9887 O.2       1 <1>        -0.9591 
       5 N1         0.5687    1.2355   -2.8144 N.pl3     1 <1>        -1.1210 
       6 C2        -0.6092    2.0476   -2.4771 C.3       1 <1>         0.1110 
       7 C3        -1.1401    1.6288   -1.1070 C.3       1 <1>        -0.1273 
       8 C4        -0.0605    1.8607   -0.0508 C.3       1 <1>        -0.1200 
       9 C5        -0.5914    1.4419    1.3194 C.3       1 <1>        -0.1200 
      10 C6         0.4882    1.6738    2.3755 C.3       1 <1>        -0.1273 
      11 C7        -0.0427    1.2551    3.7458 C.3       1 <1>         0.1110 
      12 N2         0.9959    1.4781    4.7618 N.pl3     1 <1>        -1.1210 
      13 S2         2.0999    0.1869    5.1819 S.o2      1 <1>         2.6161 
      14 O3         1.3601   -0.9219    5.6998 O.2       1 <1>        -0.9591 
      15 O4         2.8197   -0.2220    4.0160 O.2       1 <1>        -0.9566 
      16 C8         3.2649    0.7748    6.4362 C.3       1 <1>        -0.6739 
      17 H1         1.8807   -1.9146   -4.5781 H         1 <1>         0.1263 
      18 H2         2.6363   -0.3066   -4.5435 H         1 <1>         0.1286 
      19 H3         2.4549   -1.2356   -3.0396 H         1 <1>         0.1300 
      20 H4         1.4882    1.5313   -2.5191 H         1 <1>         0.4190 
      21 H5        -0.3293    3.0987   -2.4528 H         1 <1>         0.0640 
      22 H6        -1.3814    1.8947   -3.2283 H         1 <1>         0.0819 
      23 H7        -2.0197    2.2206   -0.8633 H         1 <1>         0.0741 
      24 H8        -1.4064    0.5741   -1.1288 H         1 <1>         0.0711 
      25 H9         0.8190    1.2688   -0.2961 H         1 <1>         0.0667 
      26 H10        0.2056    2.9155   -0.0307 H         1 <1>         0.0690 
      27 H11       -1.4710    2.0339    1.5632 H         1 <1>         0.0690 
      28 H12       -0.8577    0.3873    1.2975 H         1 <1>         0.0667 
      29 H13        1.3677    1.0819    2.1302 H         1 <1>         0.0711 
      30 H14        0.7543    2.7286    2.3958 H         1 <1>         0.0741 
      31 H15       -0.9224    1.8469    3.9895 H         1 <1>         0.0819 
      32 H16       -0.3089    0.2003    3.7240 H         1 <1>         0.0640 
      33 H17        1.0718    2.3765    5.2170 H         1 <1>         0.4190 
      34 H18        2.7170    1.0738    7.3274 H         1 <1>         0.1286 
      35 H19        3.9595   -0.0239    6.6876 H         1 <1>         0.1300 
      36 H20        3.8171    1.6272    6.0461 H         1 <1>         0.1263 
@<TRIPOS>BOND
       1        1        2 1        
       2        1       17 1        
       3        1       18 1        
       4        1       19 1        
       5        2        3 2        
       6        2        4 2        
       7        2        5 1        
       8        5        6 1        
       9        5       20 1        
      10        6        7 1        
      11        6       21 1        
      12        6       22 1        
      13        7        8 1        
      14        7       23 1        
      15        7       24 1        
      16        8        9 1        
      17        8       25 1        
      18        8       26 1        
      19        9       10 1        
      20        9       27 1        
      21        9       28 1        
      22       10       11 1        
      23       10       29 1        
      24       10       30 1        
      25       11       12 1        
      26       11       31 1        
      27       11       32 1        
      28       12       13 1        
      29       12       33 1        
      30       13       14 2        
      31       13       15 2        
      32       13       16 1        
      33       16       34 1        
      34       16       35 1        
      35       16       36 1        
@<TRIPOS>SUBSTRUCTURE
 1 **** 1 TEMP 0 **** **** 0 ROOT

