#        1GCZ_R01_S0001_C0000_L00026_S0001_C0006_G0010_E0001.mol2
#        Tue Jun  6 14:22:05 2017
#        Descriptor:      8    33    25    10     7     5
#        Energy - RMSD - RMSD MassCentre:     -49.0927    999.9999    999.9999
#        Receptor:       1  Surface Point:     1  Conformer:     0
#        Ligand:        26  Surface Point:     1  Conformer:     6
#        BUDE Formal Charge: 0
#        ATOM Count: 36
#        Heavy ATOM Count: 16
@<TRIPOS>MOLECULE
ZINC02096229_0_1GCZ_R01_S0001_C0000_L00026_S0001_C0006_G0010_E0001
 36 35 1 0 0
SMALL
USER_CHARGES
INVALID_CHARGES
@<TRIPOS>ATOM
       1 C1         1.9998   -1.0011   -2.9994 C.3       1 <1>        -0.6739 
       2 S1         0.2713   -0.5380   -2.7278 S.o2      1 <1>         2.6162 
       3 O1        -0.3897   -1.5745   -1.9975 O.2       1 <1>        -0.9566 
       4 O2        -0.3780   -0.3560   -3.9887 O.2       1 <1>        -0.9591 
       5 N1         0.2023    0.9530   -1.8144 N.pl3     1 <1>        -1.1210 
       6 C2        -1.0988    1.5482   -1.4771 C.3       1 <1>         0.1110 
       7 C3        -1.5488    1.0436   -0.1070 C.3       1 <1>        -0.1273 
       8 C4        -0.5260    1.4594    0.9492 C.3       1 <1>        -0.1200 
       9 C5        -0.9761    0.9548    2.3194 C.3       1 <1>        -0.1200 
      10 C6         0.0469    1.3707    3.3755 C.3       1 <1>        -0.1273 
      11 C7        -0.4032    0.8661    4.7458 C.3       1 <1>         0.1110 
      12 N2         0.5808    1.2661    5.7618 N.pl3     1 <1>        -1.1210 
      13 S2         1.8922    0.1862    6.1819 S.o2      1 <1>         2.6161 
      14 O3         1.3563   -1.0342    6.6998 O.2       1 <1>        -0.9591 
      15 O4         2.6721   -0.0915    5.0160 O.2       1 <1>        -0.9566 
      16 C8         2.9375    0.9675    7.4362 C.3       1 <1>        -0.6739 
      17 H1         2.0414   -1.9214   -3.5781 H         1 <1>         0.1263 
      18 H2         2.5062   -0.2067   -3.5435 H         1 <1>         0.1286 
      19 H3         2.4889   -1.1530   -2.0396 H         1 <1>         0.1300 
      20 H4         1.0564    1.4040   -1.5191 H         1 <1>         0.4190 
      21 H5        -1.0056    2.6319   -1.4528 H         1 <1>         0.0640 
      22 H6        -1.8326    1.2636   -2.2283 H         1 <1>         0.0819 
      23 H7        -2.5179    1.4737    0.1367 H         1 <1>         0.0741 
      24 H8        -1.6280   -0.0413   -0.1288 H         1 <1>         0.0711 
      25 H9         0.4430    1.0293    0.7039 H         1 <1>         0.0667 
      26 H10       -0.4471    2.5444    0.9693 H         1 <1>         0.0690 
      27 H11       -1.9451    1.3850    2.5632 H         1 <1>         0.0690 
      28 H12       -1.0552   -0.1300    2.2975 H         1 <1>         0.0667 
      29 H13        1.0158    0.9405    3.1302 H         1 <1>         0.0711 
      30 H14        0.1258    2.4556    3.3958 H         1 <1>         0.0741 
      31 H15       -1.3723    1.2962    4.9895 H         1 <1>         0.0819 
      32 H16       -0.4823   -0.2189    4.7240 H         1 <1>         0.0640 
      33 H17        0.4996    2.1641    6.2170 H         1 <1>         0.4190 
      34 H18        2.3460    1.1668    8.3274 H         1 <1>         0.1286 
      35 H19        3.7603    0.3015    7.6876 H         1 <1>         0.1300 
      36 H20        3.3333    1.9029    7.0461 H         1 <1>         0.1263 
@<TRIPOS>BOND
       1        1        2 1        
       2        1       17 1        
       3        1       18 1        
       4        1       19 1        
       5        2        3 2        
       6        2        4 2        
       7        2        5 1        
       8        5        6 1        
       9        5       20 1        
      10        6        7 1        
      11        6       21 1        
      12        6       22 1        
      13        7        8 1        
      14        7       23 1        
      15        7       24 1        
      16        8        9 1        
      17        8       25 1        
      18        8       26 1        
      19        9       10 1        
      20        9       27 1        
      21        9       28 1        
      22       10       11 1        
      23       10       29 1        
      24       10       30 1        
      25       11       12 1        
      26       11       31 1        
      27       11       32 1        
      28       12       13 1        
      29       12       33 1        
      30       13       14 2        
      31       13       15 2        
      32       13       16 1        
      33       16       34 1        
      34       16       35 1        
      35       16       36 1        
@<TRIPOS>SUBSTRUCTURE
 1 **** 1 TEMP 0 **** **** 0 ROOT

