#        1GCZ_R01_S0001_C0000_L00026_S0001_C0007_G0010_E0001.mol2
#        Tue Jun  6 10:02:41 2017
#        Descriptor:     27    35    29     5     7    11
#        Energy - RMSD - RMSD MassCentre:     -36.7368    999.9999    999.9999
#        Receptor:       1  Surface Point:     1  Conformer:     0
#        Ligand:        26  Surface Point:     1  Conformer:     7
#        BUDE Formal Charge: 0
#        ATOM Count: 36
#        Heavy ATOM Count: 16
@<TRIPOS>MOLECULE
ZINC02096229_0_1GCZ_R01_S0001_C0000_L00026_S0001_C0007_G0010_E0001
 36 35 1 0 0
SMALL
USER_CHARGES
INVALID_CHARGES
@<TRIPOS>ATOM
       1 C1        -2.9999   -1.0004    2.9988 C.3       1 <1>        -0.6739 
       2 S1        -1.2993   -0.3810    3.0000 S.o2      1 <1>         2.6162 
       3 O1        -0.6936   -0.6513    1.7332 O.2       1 <1>        -0.9566 
       4 O2        -0.5544   -1.0325    4.0321 O.2       1 <1>        -0.9591 
       5 N1        -1.3063    1.3455    3.2856 N.pl3     1 <1>        -1.1210 
       6 C2        -0.0373    2.0848    3.3481 C.3       1 <1>         0.1110 
       7 C3         0.4397    2.1541    4.7980 C.3       1 <1>        -0.1273 
       8 C4        -0.6022    2.8873    5.6416 C.3       1 <1>        -0.1200 
       9 C5        -0.1252    2.9566    7.0915 C.3       1 <1>        -0.1200 
      10 C6        -1.1671    3.6899    7.9351 C.3       1 <1>        -0.1273 
      11 C7        -0.6900    3.7592    9.3851 C.3       1 <1>         0.1110 
      12 N2        -0.5248    2.3966    9.9112 N.pl3     1 <1>        -1.1210 
      13 S2        -1.8481    1.6166   10.7497 S.o2      1 <1>         2.6161 
      14 O3        -2.1943    2.3811   11.9076 O.2       1 <1>        -0.9591 
      15 O4        -2.9787    1.5309    9.8784 O.2       1 <1>        -0.9566 
      16 C8        -1.3450   -0.0477   11.2526 C.3       1 <1>        -0.6739 
      17 H1        -2.9933   -2.0757    2.8337 H         1 <1>         0.1263 
      18 H2        -3.4650   -0.7830    3.9580 H         1 <1>         0.1286 
      19 H3        -3.5616   -0.5142    2.2041 H         1 <1>         0.1300 
      20 H4        -2.1822    1.8334    3.4072 H         1 <1>         0.4190 
      21 H5         0.7094    1.5740    2.7438 H         1 <1>         0.0640 
      22 H6        -0.1863    3.0926    2.9661 H         1 <1>         0.0819 
      23 H7         0.5747    1.1458    5.1833 H         1 <1>         0.0741 
      24 H8         1.3856    2.6898    4.8427 H         1 <1>         0.0711 
      25 H9        -0.7368    3.8954    5.2548 H         1 <1>         0.0667 
      26 H10       -1.5478    2.3512    5.5954 H         1 <1>         0.0690 
      27 H11        0.0098    1.9482    7.4768 H         1 <1>         0.0690 
      28 H12        0.8209    3.4923    7.1362 H         1 <1>         0.0667 
      29 H13       -1.3017    4.6980    7.5484 H         1 <1>         0.0711 
      30 H14       -2.1127    3.1538    7.8889 H         1 <1>         0.0741 
      31 H15        0.2625    4.2832    9.4281 H         1 <1>         0.0819 
      32 H16       -1.4256    4.2929    9.9832 H         1 <1>         0.0640 
      33 H17        0.3524    1.9112    9.7888 H         1 <1>         0.4190 
      34 H18       -0.4925    0.0196   11.9253 H         1 <1>         0.1286 
      35 H19       -2.1722   -0.5375   11.7621 H         1 <1>         0.1300 
      36 H20       -1.0684   -0.6239   10.3721 H         1 <1>         0.1263 
@<TRIPOS>BOND
       1        1        2 1        
       2        1       17 1        
       3        1       18 1        
       4        1       19 1        
       5        2        3 2        
       6        2        4 2        
       7        2        5 1        
       8        5        6 1        
       9        5       20 1        
      10        6        7 1        
      11        6       21 1        
      12        6       22 1        
      13        7        8 1        
      14        7       23 1        
      15        7       24 1        
      16        8        9 1        
      17        8       25 1        
      18        8       26 1        
      19        9       10 1        
      20        9       27 1        
      21        9       28 1        
      22       10       11 1        
      23       10       29 1        
      24       10       30 1        
      25       11       12 1        
      26       11       31 1        
      27       11       32 1        
      28       12       13 1        
      29       12       33 1        
      30       13       14 2        
      31       13       15 2        
      32       13       16 1        
      33       16       34 1        
      34       16       35 1        
      35       16       36 1        
@<TRIPOS>SUBSTRUCTURE
 1 **** 1 TEMP 0 **** **** 0 ROOT

