#        1GCZ_R01_S0001_C0000_L00026_S0001_C0007_G0010_E0001.mol2
#        Tue Jun  6 14:22:06 2017
#        Descriptor:      4    20    10     7     7    15
#        Energy - RMSD - RMSD MassCentre:     -33.6642    999.9999    999.9999
#        Receptor:       1  Surface Point:     1  Conformer:     0
#        Ligand:        26  Surface Point:     1  Conformer:     7
#        BUDE Formal Charge: 0
#        ATOM Count: 36
#        Heavy ATOM Count: 16
@<TRIPOS>MOLECULE
ZINC02096229_0_1GCZ_R01_S0001_C0000_L00026_S0001_C0007_G0010_E0001
 36 35 1 0 0
SMALL
USER_CHARGES
INVALID_CHARGES
@<TRIPOS>ATOM
       1 C1        -1.0008   -1.0005    6.9991 C.3       1 <1>        -0.6739 
       2 S1         0.0634   -0.3310    5.6972 S.o2      1 <1>         2.6162 
       3 O1        -0.4719   -0.6811    4.4182 O.2       1 <1>        -0.9566 
       4 O2         1.3787   -0.8763    5.8279 O.2       1 <1>        -0.9591 
       5 N1         0.1365    1.4116    5.8405 N.pl3     1 <1>        -1.1210 
       6 C2         0.9549    2.1921    4.9015 C.3       1 <1>         0.1110 
       7 C3         2.3521    2.3895    5.4876 C.3       1 <1>        -0.1273 
       8 C4         2.2469    3.1544    6.8063 C.3       1 <1>        -0.1200 
       9 C5         3.6441    3.3519    7.3924 C.3       1 <1>        -0.1200 
      10 C6         3.5388    4.1168    8.7110 C.3       1 <1>        -0.1273 
      11 C7         4.9361    4.3142    9.2971 C.3       1 <1>         0.1110 
      12 N2         5.5481    3.0029    9.5550 N.pl3     1 <1>        -1.1210 
      13 S2         5.3751    2.2509   11.1256 S.o2      1 <1>         2.6161 
      14 O3         5.9589    3.0928   12.1232 O.2       1 <1>        -0.9591 
      15 O4         3.9870    2.0624   11.4125 O.2       1 <1>        -0.9566 
      16 C8         6.2146    0.6474   11.1215 C.3       1 <1>        -0.6739 
      17 H1        -1.0353   -2.0847    6.9165 H         1 <1>         0.1263 
      18 H2        -0.6008   -0.7228    7.9720 H         1 <1>         0.1286 
      19 H3        -2.0046   -0.5957    6.8900 H         1 <1>         0.1300 
      20 H4        -0.3838    1.8803    6.5683 H         1 <1>         0.4190 
      21 H5         1.0294    1.6586    3.9562 H         1 <1>         0.0640 
      22 H6         0.4901    3.1617    4.7357 H         1 <1>         0.0819 
      23 H7         2.8102    1.4192    5.6662 H         1 <1>         0.0741 
      24 H8         2.9619    2.9559    4.7869 H         1 <1>         0.0711 
      25 H9         1.7879    4.1244    6.6265 H         1 <1>         0.0667 
      26 H10        1.6362    2.5875    7.5058 H         1 <1>         0.0690 
      27 H11        4.1022    2.3814    7.5709 H         1 <1>         0.0690 
      28 H12        4.2540    3.9182    6.6915 H         1 <1>         0.0667 
      29 H13        3.0799    5.0868    8.5312 H         1 <1>         0.0711 
      30 H14        2.9281    3.5500    9.4105 H         1 <1>         0.0741 
      31 H15        5.5499    4.8690    8.5906 H         1 <1>         0.0819 
      32 H16        4.8624    4.8705   10.2293 H         1 <1>         0.0640 
      33 H17        6.0683    2.5365    8.8256 H         1 <1>         0.4190 
      34 H18        7.2730    0.7934   10.9154 H         1 <1>         0.1286 
      35 H19        6.0957    0.1739   12.0938 H         1 <1>         0.1300 
      36 H20        5.7790    0.0126   10.3526 H         1 <1>         0.1263 
@<TRIPOS>BOND
       1        1        2 1        
       2        1       17 1        
       3        1       18 1        
       4        1       19 1        
       5        2        3 2        
       6        2        4 2        
       7        2        5 1        
       8        5        6 1        
       9        5       20 1        
      10        6        7 1        
      11        6       21 1        
      12        6       22 1        
      13        7        8 1        
      14        7       23 1        
      15        7       24 1        
      16        8        9 1        
      17        8       25 1        
      18        8       26 1        
      19        9       10 1        
      20        9       27 1        
      21        9       28 1        
      22       10       11 1        
      23       10       29 1        
      24       10       30 1        
      25       11       12 1        
      26       11       31 1        
      27       11       32 1        
      28       12       13 1        
      29       12       33 1        
      30       13       14 2        
      31       13       15 2        
      32       13       16 1        
      33       16       34 1        
      34       16       35 1        
      35       16       36 1        
@<TRIPOS>SUBSTRUCTURE
 1 **** 1 TEMP 0 **** **** 0 ROOT

