#        1GCZ_R01_S0001_C0000_L00026_S0001_C0008_G0010_E0001.mol2
#        Tue Jun  6 10:02:42 2017
#        Descriptor:      6    33    22     9     7     8
#        Energy - RMSD - RMSD MassCentre:     -35.5813    999.9999    999.9999
#        Receptor:       1  Surface Point:     1  Conformer:     0
#        Ligand:        26  Surface Point:     1  Conformer:     8
#        BUDE Formal Charge: 0
#        ATOM Count: 36
#        Heavy ATOM Count: 16
@<TRIPOS>MOLECULE
ZINC02096229_0_1GCZ_R01_S0001_C0000_L00026_S0001_C0008_G0010_E0001
 36 35 1 0 0
SMALL
USER_CHARGES
INVALID_CHARGES
@<TRIPOS>ATOM
       1 C1         0.9996   -1.0011    0.0005 C.3       1 <1>        -0.6739 
       2 S1        -0.3541   -0.0901    0.7837 S.o2      1 <1>         2.6162 
       3 O1        -1.1700   -0.9979    1.5287 O.2       1 <1>        -0.9566 
       4 O2        -1.1466    0.5460   -0.2222 O.2       1 <1>        -0.9591 
       5 N1         0.3034    1.1211    1.8621 N.pl3     1 <1>        -1.1210 
       6 C2        -0.6002    2.0075    2.6095 C.3       1 <1>         0.1110 
       7 C3        -0.9008    1.3923    3.9754 C.3       1 <1>        -0.1273 
       8 C4         0.4008    1.2368    4.7606 C.3       1 <1>        -0.1200 
       9 C5         0.1001    0.6217    6.1266 C.3       1 <1>        -0.1200 
      10 C6         1.4017    0.4661    6.9117 C.3       1 <1>        -0.1273 
      11 C7         1.1012   -0.1490    8.2777 C.3       1 <1>         0.1110 
      12 N2         0.4947   -1.4755    8.0941 N.pl3     1 <1>        -1.1210 
      13 S2         1.5066   -2.9027    8.0622 S.o2      1 <1>         2.6161 
      14 O3         2.4314   -2.8062    6.9759 O.2       1 <1>        -0.9591 
      15 O4         2.2257   -3.0038    9.2941 O.2       1 <1>        -0.9566 
      16 C8         0.4704   -4.3709    7.8451 C.3       1 <1>        -0.6739 
      17 H1         0.5896   -1.7452   -0.6790 H         1 <1>         0.1263 
      18 H2         1.6279   -0.3085   -0.5555 H         1 <1>         0.1286 
      19 H3         1.5933   -1.4960    0.7660 H         1 <1>         0.1300 
      20 H4         1.3036    1.2106    1.9706 H         1 <1>         0.4190 
      21 H5        -0.1263    2.9775    2.7440 H         1 <1>         0.0640 
      22 H6        -1.5278    2.1304    2.0542 H         1 <1>         0.0819 
      23 H7        -1.5801    2.0418    4.5232 H         1 <1>         0.0741 
      24 H8        -1.3619    0.4163    3.8394 H         1 <1>         0.0711 
      25 H9         1.0796    0.5876    4.2112 H         1 <1>         0.0667 
      26 H10        0.8613    2.2133    4.8951 H         1 <1>         0.0690 
      27 H11       -0.5791    1.2712    6.6745 H         1 <1>         0.0690 
      28 H12       -0.3610   -0.3543    5.9905 H         1 <1>         0.0667 
      29 H13        2.0806   -0.1830    6.3623 H         1 <1>         0.0711 
      30 H14        1.8623    1.4426    7.0463 H         1 <1>         0.0741 
      31 H15        2.0261   -0.2475    8.8418 H         1 <1>         0.0819 
      32 H16        0.4113    0.4939    8.8203 H         1 <1>         0.0640 
      33 H17       -0.5058   -1.5623    7.9862 H         1 <1>         0.4190 
      34 H18       -0.0667   -4.2986    6.9016 H         1 <1>         0.1286 
      35 H19        1.0982   -5.2593    7.8386 H         1 <1>         0.1300 
      36 H20       -0.2423   -4.4355    8.6647 H         1 <1>         0.1263 
@<TRIPOS>BOND
       1        1        2 1        
       2        1       17 1        
       3        1       18 1        
       4        1       19 1        
       5        2        3 2        
       6        2        4 2        
       7        2        5 1        
       8        5        6 1        
       9        5       20 1        
      10        6        7 1        
      11        6       21 1        
      12        6       22 1        
      13        7        8 1        
      14        7       23 1        
      15        7       24 1        
      16        8        9 1        
      17        8       25 1        
      18        8       26 1        
      19        9       10 1        
      20        9       27 1        
      21        9       28 1        
      22       10       11 1        
      23       10       29 1        
      24       10       30 1        
      25       11       12 1        
      26       11       31 1        
      27       11       32 1        
      28       12       13 1        
      29       12       33 1        
      30       13       14 2        
      31       13       15 2        
      32       13       16 1        
      33       16       34 1        
      34       16       35 1        
      35       16       36 1        
@<TRIPOS>SUBSTRUCTURE
 1 **** 1 TEMP 0 **** **** 0 ROOT

