#        1GCZ_R01_S0001_C0000_L00026_S0001_C0008_G0010_E0001.mol2
#        Tue Jun  6 14:22:07 2017
#        Descriptor:      5    33    34     7    10     9
#        Energy - RMSD - RMSD MassCentre:     -34.8125    999.9999    999.9999
#        Receptor:       1  Surface Point:     1  Conformer:     0
#        Ligand:        26  Surface Point:     1  Conformer:     8
#        BUDE Formal Charge: 0
#        ATOM Count: 36
#        Heavy ATOM Count: 16
@<TRIPOS>MOLECULE
ZINC02096229_0_1GCZ_R01_S0001_C0000_L00026_S0001_C0008_G0010_E0001
 36 35 1 0 0
SMALL
USER_CHARGES
INVALID_CHARGES
@<TRIPOS>ATOM
       1 C1        -0.9989    2.0003    1.0004 C.3       1 <1>        -0.6739 
       2 S1        -0.9276    0.4982    2.0075 S.o2      1 <1>         2.6162 
       3 O1         0.3169    0.4552    2.7104 O.2       1 <1>        -0.9566 
       4 O2        -1.0361   -0.6495    1.1616 O.2       1 <1>        -0.9591 
       5 N1        -2.2462    0.5028    3.1580 N.pl3     1 <1>        -1.1210 
       6 C2        -2.4156   -0.6250    4.0855 C.3       1 <1>         0.1110 
       7 C3        -1.6785   -0.3254    5.3900 C.3       1 <1>        -0.1273 
       8 C4        -2.2655    0.9326    6.0284 C.3       1 <1>        -0.1200 
       9 C5        -1.5284    1.2321    7.3329 C.3       1 <1>        -0.1200 
      10 C6        -2.1154    2.4902    7.9712 C.3       1 <1>        -0.1273 
      11 C7        -1.3784    2.7897    9.2758 C.3       1 <1>         0.1110 
      12 N2         0.0454    3.0201    8.9913 N.pl3     1 <1>        -1.1210 
      13 S2         0.6264    4.6442    8.6967 S.o2      1 <1>         2.6161 
      14 O3        -0.0341    5.1851    7.5495 O.2       1 <1>        -0.9591 
      15 O4         0.3507    5.4624    9.8366 O.2       1 <1>        -0.9566 
      16 C8         2.4117    4.6008    8.4016 C.3       1 <1>        -0.6739 
      17 H1        -0.1861    1.9902    0.2773 H         1 <1>         0.1263 
      18 H2        -1.9512    2.0397    0.4759 H         1 <1>         0.1286 
      19 H3        -0.9021    2.8723    1.6436 H         1 <1>         0.1300 
      20 H4        -2.8903    1.2803    3.1844 H         1 <1>         0.4190 
      21 H5        -3.4743   -0.7687    4.2910 H         1 <1>         0.0640 
      22 H6        -2.0070   -1.5277    3.6362 H         1 <1>         0.0819 
      23 H7        -1.7928   -1.1657    6.0714 H         1 <1>         0.0741 
      24 H8        -0.6225   -0.1680    5.1812 H         1 <1>         0.0711 
      25 H9        -2.1513    1.7721    5.3456 H         1 <1>         0.0667 
      26 H10       -3.3218    0.7743    6.2358 H         1 <1>         0.0690 
      27 H11       -1.6428    0.3919    8.0144 H         1 <1>         0.0690 
      28 H12       -0.4724    1.3895    7.1241 H         1 <1>         0.0667 
      29 H13       -2.0012    3.3297    7.2884 H         1 <1>         0.0711 
      30 H14       -3.1716    2.3319    8.1787 H         1 <1>         0.0741 
      31 H15       -1.8051    3.6778    9.7370 H         1 <1>         0.0819 
      32 H16       -1.4814    1.9438    9.9522 H         1 <1>         0.0640 
      33 H17        0.6875    2.2409    8.9661 H         1 <1>         0.4190 
      34 H18        2.6193    3.9882    7.5267 H         1 <1>         0.1286 
      35 H19        2.7752    5.6120    8.2316 H         1 <1>         0.1300 
      36 H20        2.9119    4.1760    9.2695 H         1 <1>         0.1263 
@<TRIPOS>BOND
       1        1        2 1        
       2        1       17 1        
       3        1       18 1        
       4        1       19 1        
       5        2        3 2        
       6        2        4 2        
       7        2        5 1        
       8        5        6 1        
       9        5       20 1        
      10        6        7 1        
      11        6       21 1        
      12        6       22 1        
      13        7        8 1        
      14        7       23 1        
      15        7       24 1        
      16        8        9 1        
      17        8       25 1        
      18        8       26 1        
      19        9       10 1        
      20        9       27 1        
      21        9       28 1        
      22       10       11 1        
      23       10       29 1        
      24       10       30 1        
      25       11       12 1        
      26       11       31 1        
      27       11       32 1        
      28       12       13 1        
      29       12       33 1        
      30       13       14 2        
      31       13       15 2        
      32       13       16 1        
      33       16       34 1        
      34       16       35 1        
      35       16       36 1        
@<TRIPOS>SUBSTRUCTURE
 1 **** 1 TEMP 0 **** **** 0 ROOT

