#        1GCZ_R01_S0001_C0000_L00026_S0001_C0009_G0010_E0001.mol2
#        Tue Jun  6 14:22:09 2017
#        Descriptor:      9    33    27    10     8     4
#        Energy - RMSD - RMSD MassCentre:     -51.4288    999.9999    999.9999
#        Receptor:       1  Surface Point:     1  Conformer:     0
#        Ligand:        26  Surface Point:     1  Conformer:     9
#        BUDE Formal Charge: 0
#        ATOM Count: 36
#        Heavy ATOM Count: 16
@<TRIPOS>MOLECULE
ZINC02096229_0_1GCZ_R01_S0001_C0000_L00026_S0001_C0009_G0010_E0001
 36 35 1 0 0
SMALL
USER_CHARGES
INVALID_CHARGES
@<TRIPOS>ATOM
       1 C1         2.0000   -0.0011   -3.9993 C.3       1 <1>        -0.6739 
       2 S1         0.1901    0.0000   -4.0000 S.o2      1 <1>         2.6162 
       3 O1        -0.2866   -1.1675   -3.3260 O.2       1 <1>        -0.9566 
       4 O2        -0.2870   -0.0007   -5.3480 O.2       1 <1>        -0.9591 
       5 N1        -0.3938    1.4282   -3.1744 N.pl3     1 <1>        -1.1210 
       6 C2         0.0540    1.7195   -1.8049 C.3       1 <1>         0.1110 
       7 C3        -0.9311    1.1116   -0.8077 C.3       1 <1>        -0.1273 
       8 C4        -0.4656    1.4145    0.6158 C.3       1 <1>        -0.1200 
       9 C5        -1.4508    0.8065    1.6131 C.3       1 <1>        -0.1200 
      10 C6        -0.9853    1.1094    3.0366 C.3       1 <1>        -0.1273 
      11 C7        -1.9704    0.5015    4.0339 C.3       1 <1>         0.1110 
      12 N2        -1.5226    0.7928    5.4033 N.pl3     1 <1>        -1.1210 
      13 S2        -0.5001   -0.3474    6.2501 S.o2      1 <1>         2.6161 
      14 O3        -1.1864   -1.5949    6.3824 O.2       1 <1>        -0.9591 
      15 O4         0.7082   -0.5431    5.5109 O.2       1 <1>        -0.9566 
      16 C8        -0.1051    0.3024    7.8926 C.3       1 <1>        -0.6739 
      17 H1         2.3616   -0.8830   -4.5239 H         1 <1>         0.1263 
      18 H2         2.3627    0.8938   -4.5005 H         1 <1>         0.1286 
      19 H3         2.3616   -0.0148   -2.9734 H         1 <1>         0.1300 
      20 H4        -1.0382    2.0518   -3.6390 H         1 <1>         0.4190 
      21 H5         1.0414    1.2905   -1.6480 H         1 <1>         0.0640 
      22 H6         0.0991    2.7970   -1.6603 H         1 <1>         0.0819 
      23 H7        -1.9180    1.5410   -0.9663 H         1 <1>         0.0741 
      24 H8        -0.9758    0.0344   -0.9539 H         1 <1>         0.0711 
      25 H9         0.5218    0.9853    0.7729 H         1 <1>         0.0667 
      26 H10       -0.4205    2.4919    0.7604 H         1 <1>         0.0690 
      27 H11       -2.4378    1.2360    1.4546 H         1 <1>         0.0690 
      28 H12       -1.4955   -0.2707    1.4669 H         1 <1>         0.0667 
      29 H13        0.0021    0.6801    3.1936 H         1 <1>         0.0711 
      30 H14       -0.9402    2.1868    3.1812 H         1 <1>         0.0741 
      31 H15       -2.9574    0.9308    3.8753 H         1 <1>         0.0819 
      32 H16       -2.0151   -0.5758    3.8877 H         1 <1>         0.0640 
      33 H17       -1.8053    1.6508    5.8549 H         1 <1>         0.4190 
      34 H18       -1.0243    0.4391    8.4585 H         1 <1>         0.1286 
      35 H19        0.5414   -0.4003    8.4140 H         1 <1>         0.1300 
      36 H20        0.4045    1.2584    7.7909 H         1 <1>         0.1263 
@<TRIPOS>BOND
       1        1        2 1        
       2        1       17 1        
       3        1       18 1        
       4        1       19 1        
       5        2        3 2        
       6        2        4 2        
       7        2        5 1        
       8        5        6 1        
       9        5       20 1        
      10        6        7 1        
      11        6       21 1        
      12        6       22 1        
      13        7        8 1        
      14        7       23 1        
      15        7       24 1        
      16        8        9 1        
      17        8       25 1        
      18        8       26 1        
      19        9       10 1        
      20        9       27 1        
      21        9       28 1        
      22       10       11 1        
      23       10       29 1        
      24       10       30 1        
      25       11       12 1        
      26       11       31 1        
      27       11       32 1        
      28       12       13 1        
      29       12       33 1        
      30       13       14 2        
      31       13       15 2        
      32       13       16 1        
      33       16       34 1        
      34       16       35 1        
      35       16       36 1        
@<TRIPOS>SUBSTRUCTURE
 1 **** 1 TEMP 0 **** **** 0 ROOT

