#        1GCZ_R01_S0001_C0000_L00026_S0001_C0010_G0010_E0001.mol2
#        Tue Jun  6 10:02:43 2017
#        Descriptor:     35    34    26     7     9     8
#        Energy - RMSD - RMSD MassCentre:     -38.9094    999.9999    999.9999
#        Receptor:       1  Surface Point:     1  Conformer:     0
#        Ligand:        26  Surface Point:     1  Conformer:    10
#        BUDE Formal Charge: 0
#        ATOM Count: 36
#        Heavy ATOM Count: 16
@<TRIPOS>MOLECULE
ZINC02096229_0_1GCZ_R01_S0001_C0000_L00026_S0001_C0010_G0010_E0001
 36 35 1 0 0
SMALL
USER_CHARGES
INVALID_CHARGES
@<TRIPOS>ATOM
       1 C1        -0.9990    0.9993   -0.0004 C.3       1 <1>        -0.6739 
       2 S1        -0.7963    0.3451    1.6749 S.o2      1 <1>         2.6162 
       3 O1         0.2916   -0.5826    1.6950 O.2       1 <1>        -0.9566 
       4 O2        -1.9966   -0.3205    2.0761 O.2       1 <1>        -0.9591 
       5 N1        -0.4606    1.6603    2.7793 N.pl3     1 <1>        -1.1210 
       6 C2        -0.2703    1.3868    4.2110 C.3       1 <1>         0.1110 
       7 C3         1.2158    1.1725    4.4945 C.3       1 <1>        -0.1273 
       8 C4         1.4136    0.8882    5.9828 C.3       1 <1>        -0.1200 
       9 C5         2.8996    0.6738    6.2664 C.3       1 <1>        -0.1200 
      10 C6         3.0974    0.3894    7.7546 C.3       1 <1>        -0.1273 
      11 C7         4.5834    0.1752    8.0382 C.3       1 <1>         0.1110 
      12 N2         4.7737   -0.0985    9.4699 N.pl3     1 <1>        -1.1210 
      13 S2         5.1095    1.2168   10.5743 S.o2      1 <1>         2.6161 
      14 O3         3.9780    2.0892   10.6334 O.2       1 <1>        -0.9591 
      15 O4         5.3739    0.6888   11.8767 O.2       1 <1>        -0.9566 
      16 C8         6.5538    2.1389    9.9914 C.3       1 <1>        -0.6739 
      17 H1        -1.2202    0.1822   -0.6838 H         1 <1>         0.1263 
      18 H2        -1.8183    1.7150   -0.0128 H         1 <1>         0.1286 
      19 H3        -0.0804    1.4932   -0.3097 H         1 <1>         0.1300 
      20 H4        -0.3975    2.6068    2.4326 H         1 <1>         0.4190 
      21 H5        -0.6330    2.2319    4.7923 H         1 <1>         0.0640 
      22 H6        -0.8253    0.4922    4.4855 H         1 <1>         0.0819 
      23 H7         1.5773    0.3278    3.9121 H         1 <1>         0.0741 
      24 H8         1.7696    2.0675    4.2190 H         1 <1>         0.0711 
      25 H9         1.0509    1.7334    6.5642 H         1 <1>         0.0667 
      26 H10        0.8585   -0.0064    6.2573 H         1 <1>         0.0690 
      27 H11        3.2611   -0.1711    5.6840 H         1 <1>         0.0690 
      28 H12        3.4535    1.5688    5.9907 H         1 <1>         0.0667 
      29 H13        2.7347    1.2347    8.3360 H         1 <1>         0.0711 
      30 H14        2.5423   -0.5051    8.0292 H         1 <1>         0.0741 
      31 H15        4.9449   -0.6696    7.4558 H         1 <1>         0.0819 
      32 H16        5.1373    1.0701    7.7626 H         1 <1>         0.0640 
      33 H17        4.7106   -1.0454    9.8155 H         1 <1>         0.4190 
      34 H18        6.3468    2.5507    9.0057 H         1 <1>         0.1286 
      35 H19        6.7706    2.9485   10.6851 H         1 <1>         0.1300 
      36 H20        7.4106    1.4709    9.9334 H         1 <1>         0.1263 
@<TRIPOS>BOND
       1        1        2 1        
       2        1       17 1        
       3        1       18 1        
       4        1       19 1        
       5        2        3 2        
       6        2        4 2        
       7        2        5 1        
       8        5        6 1        
       9        5       20 1        
      10        6        7 1        
      11        6       21 1        
      12        6       22 1        
      13        7        8 1        
      14        7       23 1        
      15        7       24 1        
      16        8        9 1        
      17        8       25 1        
      18        8       26 1        
      19        9       10 1        
      20        9       27 1        
      21        9       28 1        
      22       10       11 1        
      23       10       29 1        
      24       10       30 1        
      25       11       12 1        
      26       11       31 1        
      27       11       32 1        
      28       12       13 1        
      29       12       33 1        
      30       13       14 2        
      31       13       15 2        
      32       13       16 1        
      33       16       34 1        
      34       16       35 1        
      35       16       36 1        
@<TRIPOS>SUBSTRUCTURE
 1 **** 1 TEMP 0 **** **** 0 ROOT

