#        1GCZ_R01_S0001_C0000_L00026_S0001_C0010_G0010_E0001.mol2
#        Tue Jun  6 14:22:10 2017
#        Descriptor:     20    18    13     8     8     7
#        Energy - RMSD - RMSD MassCentre:     -40.8035    999.9999    999.9999
#        Receptor:       1  Surface Point:     1  Conformer:     0
#        Ligand:        26  Surface Point:     1  Conformer:    10
#        BUDE Formal Charge: 0
#        ATOM Count: 36
#        Heavy ATOM Count: 16
@<TRIPOS>MOLECULE
ZINC02096229_0_1GCZ_R01_S0001_C0000_L00026_S0001_C0010_G0010_E0001
 36 35 1 0 0
SMALL
USER_CHARGES
INVALID_CHARGES
@<TRIPOS>ATOM
       1 C1         0.0012    0.0002   -0.9996 C.3       1 <1>        -0.6739 
       2 S1        -0.4742   -0.3979    0.7007 S.o2      1 <1>         2.6162 
       3 O1         0.6746   -0.3139    1.5480 O.2       1 <1>        -0.9566 
       4 O2        -1.0056   -1.7245    0.7499 O.2       1 <1>        -0.9591 
       5 N1        -1.6869    0.7380    1.2497 N.pl3     1 <1>        -1.1210 
       6 C2        -2.2494    0.6154    2.6023 C.3       1 <1>         0.1110 
       7 C3        -1.4404    1.4784    3.5694 C.3       1 <1>        -0.1273 
       8 C4        -2.0251    1.3510    4.9754 C.3       1 <1>        -0.1200 
       9 C5        -1.2161    2.2140    5.9426 C.3       1 <1>        -0.1200 
      10 C6        -1.8007    2.0865    7.3486 C.3       1 <1>        -0.1273 
      11 C7        -0.9918    2.9495    8.3158 C.3       1 <1>         0.1110 
      12 N2        -1.5542    2.8268    9.6684 N.pl3     1 <1>        -1.1210 
      13 S2        -2.7669    3.9628   10.2173 S.o2      1 <1>         2.6161 
      14 O3        -3.9543    3.8056    9.4363 O.2       1 <1>        -0.9591 
      15 O4        -3.0642    3.7133   11.5937 O.2       1 <1>        -0.9566 
      16 C8        -2.1397    5.6503   10.0308 C.3       1 <1>        -0.6739 
      17 H1         0.7458   -0.7143   -1.3440 H         1 <1>         0.1263 
      18 H2        -0.8754   -0.0508   -1.6419 H         1 <1>         0.1286 
      19 H3         0.4183    1.0043   -1.0332 H         1 <1>         0.1300 
      20 H4        -1.9998    1.4775    0.6371 H         1 <1>         0.4190 
      21 H5        -3.2846    0.9499    2.5955 H         1 <1>         0.0640 
      22 H6        -2.2058   -0.4244    2.9196 H         1 <1>         0.0819 
      23 H7        -0.4054    1.1434    3.5746 H         1 <1>         0.0741 
      24 H8        -1.4843    2.5177    3.2507 H         1 <1>         0.0711 
      25 H9        -3.0603    1.6856    4.9687 H         1 <1>         0.0667 
      26 H10       -1.9815    0.3111    5.2926 H         1 <1>         0.0690 
      27 H11       -0.1811    1.8788    5.9479 H         1 <1>         0.0690 
      28 H12       -1.2599    3.2533    5.6238 H         1 <1>         0.0667 
      29 H13       -2.8361    2.4212    7.3419 H         1 <1>         0.0711 
      30 H14       -1.7572    1.0467    7.6659 H         1 <1>         0.0741 
      31 H15        0.0432    2.6144    8.3210 H         1 <1>         0.0819 
      32 H16       -1.0356    3.9888    7.9970 H         1 <1>         0.0640 
      33 H17       -1.2404    2.0871   10.2802 H         1 <1>         0.4190 
      34 H18       -1.9258    5.8431    8.9816 H         1 <1>         0.1286 
      35 H19       -2.8885    6.3560   10.3845 H         1 <1>         0.1300 
      36 H20       -1.2286    5.7646   10.6144 H         1 <1>         0.1263 
@<TRIPOS>BOND
       1        1        2 1        
       2        1       17 1        
       3        1       18 1        
       4        1       19 1        
       5        2        3 2        
       6        2        4 2        
       7        2        5 1        
       8        5        6 1        
       9        5       20 1        
      10        6        7 1        
      11        6       21 1        
      12        6       22 1        
      13        7        8 1        
      14        7       23 1        
      15        7       24 1        
      16        8        9 1        
      17        8       25 1        
      18        8       26 1        
      19        9       10 1        
      20        9       27 1        
      21        9       28 1        
      22       10       11 1        
      23       10       29 1        
      24       10       30 1        
      25       11       12 1        
      26       11       31 1        
      27       11       32 1        
      28       12       13 1        
      29       12       33 1        
      30       13       14 2        
      31       13       15 2        
      32       13       16 1        
      33       16       34 1        
      34       16       35 1        
      35       16       36 1        
@<TRIPOS>SUBSTRUCTURE
 1 **** 1 TEMP 0 **** **** 0 ROOT

