#        1GCZ_R01_S0001_C0000_L00026_S0001_C0011_G0010_E0001.mol2
#        Tue Jun  6 10:02:43 2017
#        Descriptor:     11    21     8     6     9     4
#        Energy - RMSD - RMSD MassCentre:     -42.2484    999.9999    999.9999
#        Receptor:       1  Surface Point:     1  Conformer:     0
#        Ligand:        26  Surface Point:     1  Conformer:    11
#        BUDE Formal Charge: 0
#        ATOM Count: 36
#        Heavy ATOM Count: 16
@<TRIPOS>MOLECULE
ZINC02096229_0_1GCZ_R01_S0001_C0000_L00026_S0001_C0011_G0010_E0001
 36 35 1 0 0
SMALL
USER_CHARGES
INVALID_CHARGES
@<TRIPOS>ATOM
       1 C1        -1.9996    0.9999   -4.0012 C.3       1 <1>        -0.6739 
       2 S1        -0.3788    0.3999   -3.4639 S.o2      1 <1>         2.6162 
       3 O1         0.4353    0.1377   -4.6099 O.2       1 <1>        -0.9566 
       4 O2        -0.5412   -0.8044   -2.7102 O.2       1 <1>        -0.9591 
       5 N1         0.3926    1.6136   -2.4668 N.pl3     1 <1>        -1.1210 
       6 C2        -0.2952    2.1309   -1.2752 C.3       1 <1>         0.1110 
       7 C3         0.1123    1.3065   -0.0550 C.3       1 <1>        -0.1273 
       8 C4        -0.6028    1.8442    1.1837 C.3       1 <1>        -0.1200 
       9 C5        -0.1953    1.0198    2.4039 C.3       1 <1>        -0.1200 
      10 C6        -0.9103    1.5575    3.6427 C.3       1 <1>        -0.1273 
      11 C7        -0.5029    0.7330    4.8629 C.3       1 <1>         0.1110 
      12 N2        -1.1907    1.2504    6.0546 N.pl3     1 <1>        -1.1210 
      13 S2        -0.4193    2.4641    7.0516 S.o2      1 <1>         2.6161 
      14 O3         0.8054    1.9424    7.5741 O.2       1 <1>        -0.9591 
      15 O4        -0.1458    3.6247    6.2623 O.2       1 <1>        -0.9566 
      16 C8        -1.5190    2.9084    8.4187 C.3       1 <1>        -0.6739 
      17 H1        -2.4834    0.2394   -4.6105 H         1 <1>         0.1263 
      18 H2        -2.6145    1.2119   -3.1291 H         1 <1>         0.1286 
      19 H3        -1.8736    1.9083   -4.5863 H         1 <1>         0.1300 
      20 H4         1.3102    1.9581   -2.7105 H         1 <1>         0.4190 
      21 H5        -0.0175    3.1714   -1.1201 H         1 <1>         0.0640 
      22 H6        -1.3713    2.0598   -1.4190 H         1 <1>         0.0819 
      23 H7        -0.1653    0.2664   -0.2119 H         1 <1>         0.0741 
      24 H8         1.1886    1.3778    0.0871 H         1 <1>         0.0711 
      25 H9        -0.3250    2.8847    1.3389 H         1 <1>         0.0667 
      26 H10       -1.6789    1.7731    1.0399 H         1 <1>         0.0690 
      27 H11       -0.4730   -0.0205    2.2472 H         1 <1>         0.0690 
      28 H12        0.8810    1.0911    2.5461 H         1 <1>         0.0667 
      29 H13       -0.6325    2.5980    3.7980 H         1 <1>         0.0711 
      30 H14       -1.9864    1.4864    3.4988 H         1 <1>         0.0741 
      31 H15       -0.7805   -0.3071    4.7061 H         1 <1>         0.0819 
      32 H16        0.5734    0.8044    5.0050 H         1 <1>         0.0640 
      33 H17       -2.1083    0.9050    6.2974 H         1 <1>         0.4190 
      34 H18       -1.7163    2.0272    9.0257 H         1 <1>         0.1286 
      35 H19       -1.0450    3.6726    9.0310 H         1 <1>         0.1300 
      36 H20       -2.4558    3.2919    8.0199 H         1 <1>         0.1263 
@<TRIPOS>BOND
       1        1        2 1        
       2        1       17 1        
       3        1       18 1        
       4        1       19 1        
       5        2        3 2        
       6        2        4 2        
       7        2        5 1        
       8        5        6 1        
       9        5       20 1        
      10        6        7 1        
      11        6       21 1        
      12        6       22 1        
      13        7        8 1        
      14        7       23 1        
      15        7       24 1        
      16        8        9 1        
      17        8       25 1        
      18        8       26 1        
      19        9       10 1        
      20        9       27 1        
      21        9       28 1        
      22       10       11 1        
      23       10       29 1        
      24       10       30 1        
      25       11       12 1        
      26       11       31 1        
      27       11       32 1        
      28       12       13 1        
      29       12       33 1        
      30       13       14 2        
      31       13       15 2        
      32       13       16 1        
      33       16       34 1        
      34       16       35 1        
      35       16       36 1        
@<TRIPOS>SUBSTRUCTURE
 1 **** 1 TEMP 0 **** **** 0 ROOT

