#        1GCZ_R01_S0001_C0000_L00026_S0001_C0011_G0010_E0001.mol2
#        Tue Jun  6 14:22:11 2017
#        Descriptor:     29    33    27     6     9     4
#        Energy - RMSD - RMSD MassCentre:     -35.2199    999.9999    999.9999
#        Receptor:       1  Surface Point:     1  Conformer:     0
#        Ligand:        26  Surface Point:     1  Conformer:    11
#        BUDE Formal Charge: 0
#        ATOM Count: 36
#        Heavy ATOM Count: 16
@<TRIPOS>MOLECULE
ZINC02096229_0_1GCZ_R01_S0001_C0000_L00026_S0001_C0011_G0010_E0001
 36 35 1 0 0
SMALL
USER_CHARGES
INVALID_CHARGES
@<TRIPOS>ATOM
       1 C1        -1.9996    1.0000   -4.0012 C.3       1 <1>        -0.6739 
       2 S1        -0.2993    0.6905   -3.4639 S.o2      1 <1>         2.6162 
       3 O1         0.5480    0.5737   -4.6099 O.2       1 <1>        -0.9566 
       4 O2        -0.2501   -0.5236   -2.7102 O.2       1 <1>        -0.9591 
       5 N1         0.2497    2.0197   -2.4668 N.pl3     1 <1>        -1.1210 
       6 C2        -0.5175    2.4098   -1.2752 C.3       1 <1>         0.1110 
       7 C3         0.0270    1.6686   -0.0550 C.3       1 <1>        -0.1273 
       8 C4        -0.7706    2.0740    1.1837 C.3       1 <1>        -0.1200 
       9 C5        -0.2261    1.3328    2.4039 C.3       1 <1>        -0.1200 
      10 C6        -1.0237    1.7383    3.6427 C.3       1 <1>        -0.1273 
      11 C7        -0.4793    0.9970    4.8629 C.3       1 <1>         0.1110 
      12 N2        -1.2465    1.3871    6.0546 N.pl3     1 <1>        -1.1210 
      13 S2        -0.6975    2.7163    7.0516 S.o2      1 <1>         2.6161 
      14 O3         0.5991    2.4152    7.5741 O.2       1 <1>        -0.9591 
      15 O4        -0.6297    3.9068    6.2623 O.2       1 <1>        -0.9566 
      16 C8        -1.8577    2.9629    8.4187 C.3       1 <1>        -0.6739 
      17 H1        -2.3440    0.1670   -4.6105 H         1 <1>         0.1263 
      18 H2        -2.6419    1.1020   -3.1291 H         1 <1>         0.1286 
      19 H3        -2.0332    1.9165   -4.5863 H         1 <1>         0.1300 
      20 H4         1.0936    2.5184   -2.7105 H         1 <1>         0.4190 
      21 H5        -0.4247    3.4827   -1.1201 H         1 <1>         0.0640 
      22 H6        -1.5649    2.1529   -1.4190 H         1 <1>         0.0819 
      23 H7        -0.0658    0.5961   -0.2119 H         1 <1>         0.0741 
      24 H8         1.0746    1.9258    0.0871 H         1 <1>         0.0711 
      25 H9        -0.6777    3.1469    1.3389 H         1 <1>         0.0667 
      26 H10       -1.8180    1.8171    1.0399 H         1 <1>         0.0690 
      27 H11       -0.3190    0.2602    2.2472 H         1 <1>         0.0690 
      28 H12        0.8214    1.5900    2.5461 H         1 <1>         0.0667 
      29 H13       -0.9307    2.8112    3.7980 H         1 <1>         0.0711 
      30 H14       -2.0711    1.4814    3.4988 H         1 <1>         0.0741 
      31 H15       -0.5720   -0.0755    4.7061 H         1 <1>         0.0819 
      32 H16        0.5683    1.2543    5.0050 H         1 <1>         0.0640 
      33 H17       -2.0901    0.8877    6.2974 H         1 <1>         0.4190 
      34 H18       -1.8990    2.0609    9.0257 H         1 <1>         0.1286 
      35 H19       -1.5236    3.7978    9.0310 H         1 <1>         0.1300 
      36 H20       -2.8469    3.1780    8.0199 H         1 <1>         0.1263 
@<TRIPOS>BOND
       1        1        2 1        
       2        1       17 1        
       3        1       18 1        
       4        1       19 1        
       5        2        3 2        
       6        2        4 2        
       7        2        5 1        
       8        5        6 1        
       9        5       20 1        
      10        6        7 1        
      11        6       21 1        
      12        6       22 1        
      13        7        8 1        
      14        7       23 1        
      15        7       24 1        
      16        8        9 1        
      17        8       25 1        
      18        8       26 1        
      19        9       10 1        
      20        9       27 1        
      21        9       28 1        
      22       10       11 1        
      23       10       29 1        
      24       10       30 1        
      25       11       12 1        
      26       11       31 1        
      27       11       32 1        
      28       12       13 1        
      29       12       33 1        
      30       13       14 2        
      31       13       15 2        
      32       13       16 1        
      33       16       34 1        
      34       16       35 1        
      35       16       36 1        
@<TRIPOS>SUBSTRUCTURE
 1 **** 1 TEMP 0 **** **** 0 ROOT

