#        1GCZ_R01_S0001_C0000_L00026_S0001_C0012_G0010_E0001.mol2
#        Tue Jun  6 10:02:44 2017
#        Descriptor:     24    18    10     9     8    10
#        Energy - RMSD - RMSD MassCentre:     -35.5480    999.9999    999.9999
#        Receptor:       1  Surface Point:     1  Conformer:     0
#        Ligand:        26  Surface Point:     1  Conformer:    12
#        BUDE Formal Charge: 0
#        ATOM Count: 36
#        Heavy ATOM Count: 16
@<TRIPOS>MOLECULE
ZINC02096229_0_1GCZ_R01_S0001_C0000_L00026_S0001_C0012_G0010_E0001
 36 35 1 0 0
SMALL
USER_CHARGES
INVALID_CHARGES
@<TRIPOS>ATOM
       1 C1         1.0006   -0.0005    2.0010 C.3       1 <1>        -0.6739 
       2 S1        -0.5436   -0.2722    2.9050 S.o2      1 <1>         2.6162 
       3 O1        -0.2582   -0.9064    4.1544 O.2       1 <1>        -0.9566 
       4 O2        -1.4080   -1.1096    2.1328 O.2       1 <1>        -0.9591 
       5 N1        -1.3276    1.2647    3.1977 N.pl3     1 <1>        -1.1210 
       6 C2        -0.5962    2.3452    3.8747 C.3       1 <1>         0.1110 
       7 C3        -0.8566    2.2709    5.3784 C.3       1 <1>        -0.1273 
       8 C4        -0.0962    3.3941    6.0822 C.3       1 <1>        -0.1200 
       9 C5        -0.3567    3.3199    7.5860 C.3       1 <1>        -0.1200 
      10 C6         0.4037    4.4430    8.2897 C.3       1 <1>        -0.1273 
      11 C7         0.1433    4.3688    9.7935 C.3       1 <1>         0.1110 
      12 N2        -1.2947    4.5342   10.0496 N.pl3     1 <1>        -1.1210 
      13 S2        -1.9488    6.1259   10.3676 S.o2      1 <1>         2.6161 
      14 O3        -1.3371    6.6657   11.5420 O.2       1 <1>        -0.9591 
      15 O4        -1.6814    6.9814    9.2534 O.2       1 <1>        -0.9566 
      16 C8        -3.7369    6.0029   10.6197 C.3       1 <1>        -0.6739 
      17 H1         1.4807   -0.9577    1.8086 H         1 <1>         0.1263 
      18 H2         0.7849    0.4939    1.0562 H         1 <1>         0.1286 
      19 H3         1.6629    0.6251    2.5955 H         1 <1>         0.1300 
      20 H4        -2.2823    1.4088    2.9014 H         1 <1>         0.4190 
      21 H5         0.4694    2.2354    3.6845 H         1 <1>         0.0640 
      22 H6        -0.9359    3.3062    3.4941 H         1 <1>         0.0819 
      23 H7        -1.9224    2.3801    5.5670 H         1 <1>         0.0741 
      24 H8        -0.5171    1.3092    5.7576 H         1 <1>         0.0711 
      25 H9         0.9695    3.2843    5.8921 H         1 <1>         0.0667 
      26 H10       -0.4359    4.3551    5.7015 H         1 <1>         0.0690 
      27 H11       -1.4226    3.4291    7.7746 H         1 <1>         0.0690 
      28 H12       -0.0172    2.3582    7.9651 H         1 <1>         0.0667 
      29 H13        1.4694    4.3331    8.0997 H         1 <1>         0.0711 
      30 H14        0.0640    5.4040    7.9091 H         1 <1>         0.0741 
      31 H15        0.4705    3.4020   10.1703 H         1 <1>         0.0819 
      32 H16        0.6952    5.1604   10.2960 H         1 <1>         0.0640 
      33 H17       -1.9046    3.7292   10.0421 H         1 <1>         0.4190 
      34 H18       -3.9386    5.3618   11.4752 H         1 <1>         0.1286 
      35 H19       -4.1455    6.9942   10.8041 H         1 <1>         0.1300 
      36 H20       -4.1995    5.5789    9.7308 H         1 <1>         0.1263 
@<TRIPOS>BOND
       1        1        2 1        
       2        1       17 1        
       3        1       18 1        
       4        1       19 1        
       5        2        3 2        
       6        2        4 2        
       7        2        5 1        
       8        5        6 1        
       9        5       20 1        
      10        6        7 1        
      11        6       21 1        
      12        6       22 1        
      13        7        8 1        
      14        7       23 1        
      15        7       24 1        
      16        8        9 1        
      17        8       25 1        
      18        8       26 1        
      19        9       10 1        
      20        9       27 1        
      21        9       28 1        
      22       10       11 1        
      23       10       29 1        
      24       10       30 1        
      25       11       12 1        
      26       11       31 1        
      27       11       32 1        
      28       12       13 1        
      29       12       33 1        
      30       13       14 2        
      31       13       15 2        
      32       13       16 1        
      33       16       34 1        
      34       16       35 1        
      35       16       36 1        
@<TRIPOS>SUBSTRUCTURE
 1 **** 1 TEMP 0 **** **** 0 ROOT

