#        1GCZ_R01_S0001_C0000_L00026_S0001_C0012_G0010_E0001.mol2
#        Tue Jun  6 14:22:13 2017
#        Descriptor:      9    33    23     9     7     9
#        Energy - RMSD - RMSD MassCentre:     -34.5730    999.9999    999.9999
#        Receptor:       1  Surface Point:     1  Conformer:     0
#        Ligand:        26  Surface Point:     1  Conformer:    12
#        BUDE Formal Charge: 0
#        ATOM Count: 36
#        Heavy ATOM Count: 16
@<TRIPOS>MOLECULE
ZINC02096229_0_1GCZ_R01_S0001_C0000_L00026_S0001_C0012_G0010_E0001
 36 35 1 0 0
SMALL
USER_CHARGES
INVALID_CHARGES
@<TRIPOS>ATOM
       1 C1         0.9993   -1.0008    1.0007 C.3       1 <1>        -0.6739 
       2 S1        -0.3865    0.1634    1.0000 S.o2      1 <1>         2.6162 
       3 O1        -1.5021   -0.4246    1.6740 O.2       1 <1>        -0.9566 
       4 O2        -0.7524    0.4695   -0.3480 O.2       1 <1>        -0.9591 
       5 N1         0.0843    1.6328    1.8256 N.pl3     1 <1>        -1.1210 
       6 C2         0.6146    1.5681    3.1951 C.3       1 <1>         0.1110 
       7 C3        -0.5308    1.7356    4.1923 C.3       1 <1>        -0.1273 
       8 C4         0.0205    1.6684    5.6158 C.3       1 <1>        -0.1200 
       9 C5        -1.1250    1.8360    6.6131 C.3       1 <1>        -0.1200 
      10 C6        -0.5738    1.7688    8.0366 C.3       1 <1>        -0.1273 
      11 C7        -1.7192    1.9363    9.0339 C.3       1 <1>         0.1110 
      12 N2        -2.3564    3.2454    8.8315 N.pl3     1 <1>        -1.1210 
      13 S2        -1.8157    4.6325    9.7513 S.o2      1 <1>         2.6161 
      14 O3        -2.0057    4.3818   11.1463 O.2       1 <1>        -0.9591 
      15 O4        -0.4287    4.8640    9.4921 O.2       1 <1>        -0.9566 
      16 C8        -2.7731    6.0891    9.2633 C.3       1 <1>        -0.6739 
      17 H1         0.7094   -1.9088    0.4761 H         1 <1>         0.1263 
      18 H2         1.8524   -0.5484    0.4995 H         1 <1>         0.1286 
      19 H3         1.2675   -1.2437    2.0266 H         1 <1>         0.1300 
      20 H4        -0.0085    2.5247    1.3610 H         1 <1>         0.4190 
      21 H5         1.0952    0.6047    3.3520 H         1 <1>         0.0640 
      22 H6         1.3417    2.3645    3.3397 H         1 <1>         0.0819 
      23 H7        -1.0108    2.6989    4.0337 H         1 <1>         0.0741 
      24 H8        -1.2575    0.9391    4.0461 H         1 <1>         0.0711 
      25 H9         0.5009    0.7049    5.7729 H         1 <1>         0.0667 
      26 H10        0.7476    2.4648    5.7604 H         1 <1>         0.0690 
      27 H11       -1.6051    2.7994    6.4546 H         1 <1>         0.0690 
      28 H12       -1.8517    1.0395    6.4669 H         1 <1>         0.0667 
      29 H13       -0.0933    0.8052    8.1936 H         1 <1>         0.0711 
      30 H14        0.1533    2.5651    8.1812 H         1 <1>         0.0741 
      31 H15       -2.4524    1.1476    8.8789 H         1 <1>         0.0819 
      32 H16       -1.3286    1.8751   10.0475 H         1 <1>         0.0640 
      33 H17       -3.1060    3.3437    8.1618 H         1 <1>         0.4190 
      34 H18       -3.8267    5.9165    9.4725 H         1 <1>         0.1286 
      35 H19       -2.4278    6.9542    9.8255 H         1 <1>         0.1300 
      36 H20       -2.6389    6.2704    8.1988 H         1 <1>         0.1263 
@<TRIPOS>BOND
       1        1        2 1        
       2        1       17 1        
       3        1       18 1        
       4        1       19 1        
       5        2        3 2        
       6        2        4 2        
       7        2        5 1        
       8        5        6 1        
       9        5       20 1        
      10        6        7 1        
      11        6       21 1        
      12        6       22 1        
      13        7        8 1        
      14        7       23 1        
      15        7       24 1        
      16        8        9 1        
      17        8       25 1        
      18        8       26 1        
      19        9       10 1        
      20        9       27 1        
      21        9       28 1        
      22       10       11 1        
      23       10       29 1        
      24       10       30 1        
      25       11       12 1        
      26       11       31 1        
      27       11       32 1        
      28       12       13 1        
      29       12       33 1        
      30       13       14 2        
      31       13       15 2        
      32       13       16 1        
      33       16       34 1        
      34       16       35 1        
      35       16       36 1        
@<TRIPOS>SUBSTRUCTURE
 1 **** 1 TEMP 0 **** **** 0 ROOT

