#        1GCZ_R01_S0001_C0000_L00026_S0001_C0013_G0010_E0001.mol2
#        Tue Jun  6 10:02:44 2017
#        Descriptor:     14    21     6     7     9     8
#        Energy - RMSD - RMSD MassCentre:     -39.7577    999.9999    999.9999
#        Receptor:       1  Surface Point:     1  Conformer:     0
#        Ligand:        26  Surface Point:     1  Conformer:    13
#        BUDE Formal Charge: 0
#        ATOM Count: 36
#        Heavy ATOM Count: 16
@<TRIPOS>MOLECULE
ZINC02096229_0_1GCZ_R01_S0001_C0000_L00026_S0001_C0013_G0010_E0001
 36 35 1 0 0
SMALL
USER_CHARGES
INVALID_CHARGES
@<TRIPOS>ATOM
       1 C1        -0.9994    0.9994   -0.0009 C.3       1 <1>        -0.6739 
       2 S1        -0.3391   -0.1820    1.2007 S.o2      1 <1>         2.6162 
       3 O1         0.5052   -1.1212    0.5300 O.2       1 <1>        -0.9566 
       4 O2        -1.4187   -0.8774    1.8296 O.2       1 <1>        -0.9591 
       5 N1         0.5892    0.6738    2.4124 N.pl3     1 <1>        -1.1210 
       6 C2         1.2194   -0.0677    3.5141 C.3       1 <1>         0.1110 
       7 C3         0.2682   -0.1083    4.7091 C.3       1 <1>        -0.1273 
       8 C4        -0.0236    1.3174    5.1754 C.3       1 <1>        -0.1200 
       9 C5        -0.9748    1.2768    6.3705 C.3       1 <1>        -0.1200 
      10 C6        -1.2666    2.7024    6.8367 C.3       1 <1>        -0.1273 
      11 C7        -2.2179    2.6618    8.0318 C.3       1 <1>         0.1110 
      12 N2        -2.4985    4.0332    8.4803 N.pl3     1 <1>        -1.1210 
      13 S2        -1.5156    4.7625    9.7312 S.o2      1 <1>         2.6161 
      14 O3        -0.1780    4.9237    9.2518 O.2       1 <1>        -0.9591 
      15 O4        -2.0564    6.0404   10.0767 O.2       1 <1>        -0.9566 
      16 C8        -1.5094    3.6938   11.1920 C.3       1 <1>        -0.6739 
      17 H1        -1.5866    0.4675   -0.7464 H         1 <1>         0.1263 
      18 H2        -1.6312    1.7219    0.5114 H         1 <1>         0.1286 
      19 H3        -0.1766    1.5177   -0.4886 H         1 <1>         0.1300 
      20 H4         0.6917    1.6769    2.3542 H         1 <1>         0.4190 
      21 H5         1.4380   -1.0827    3.1890 H         1 <1>         0.0640 
      22 H6         2.1438    0.4284    3.8022 H         1 <1>         0.0819 
      23 H7        -0.6611   -0.5919    4.4159 H         1 <1>         0.0741 
      24 H8         0.7292   -0.6684    5.5200 H         1 <1>         0.0711 
      25 H9         0.9066    1.8001    5.4677 H         1 <1>         0.0667 
      26 H10       -0.4838    1.8767    4.3635 H         1 <1>         0.0690 
      27 H11       -1.9042    0.7931    6.0772 H         1 <1>         0.0690 
      28 H12       -0.5138    0.7164    7.1813 H         1 <1>         0.0667 
      29 H13       -0.3364    3.1852    7.1291 H         1 <1>         0.0711 
      30 H14       -1.7267    3.2617    6.0249 H         1 <1>         0.0741 
      31 H15       -3.1472    2.1781    7.7386 H         1 <1>         0.0819 
      32 H16       -1.7567    2.1015    8.8427 H         1 <1>         0.0640 
      33 H17       -3.2585    4.5539    8.0665 H         1 <1>         0.4190 
      34 H18       -1.0863    2.7260   10.9309 H         1 <1>         0.1286 
      35 H19       -0.9093    4.1536   11.9744 H         1 <1>         0.1300 
      36 H20       -2.5292    3.5605   11.5474 H         1 <1>         0.1263 
@<TRIPOS>BOND
       1        1        2 1        
       2        1       17 1        
       3        1       18 1        
       4        1       19 1        
       5        2        3 2        
       6        2        4 2        
       7        2        5 1        
       8        5        6 1        
       9        5       20 1        
      10        6        7 1        
      11        6       21 1        
      12        6       22 1        
      13        7        8 1        
      14        7       23 1        
      15        7       24 1        
      16        8        9 1        
      17        8       25 1        
      18        8       26 1        
      19        9       10 1        
      20        9       27 1        
      21        9       28 1        
      22       10       11 1        
      23       10       29 1        
      24       10       30 1        
      25       11       12 1        
      26       11       31 1        
      27       11       32 1        
      28       12       13 1        
      29       12       33 1        
      30       13       14 2        
      31       13       15 2        
      32       13       16 1        
      33       16       34 1        
      34       16       35 1        
      35       16       36 1        
@<TRIPOS>SUBSTRUCTURE
 1 **** 1 TEMP 0 **** **** 0 ROOT

