#        1GCZ_R01_S0001_C0000_L00026_S0001_C0013_G0010_E0001.mol2
#        Tue Jun  6 14:22:14 2017
#        Descriptor:     13    20     8     6     9     9
#        Energy - RMSD - RMSD MassCentre:     -37.8524    999.9999    999.9999
#        Receptor:       1  Surface Point:     1  Conformer:     0
#        Ligand:        26  Surface Point:     1  Conformer:    13
#        BUDE Formal Charge: 0
#        ATOM Count: 36
#        Heavy ATOM Count: 16
@<TRIPOS>MOLECULE
ZINC02096229_0_1GCZ_R01_S0001_C0000_L00026_S0001_C0013_G0010_E0001
 36 35 1 0 0
SMALL
USER_CHARGES
INVALID_CHARGES
@<TRIPOS>ATOM
       1 C1        -1.9994    0.9996    0.9990 C.3       1 <1>        -0.6739 
       2 S1        -0.7037    0.3674    2.0932 S.o2      1 <1>         2.6162 
       3 O1         0.3199   -0.2521    1.3102 O.2       1 <1>        -0.9566 
       4 O2        -1.2639   -0.5945    2.9907 O.2       1 <1>        -0.9591 
       5 N1        -0.0157    1.6901    3.0095 N.pl3     1 <1>        -1.1210 
       6 C2         1.0521    1.4302    3.9857 C.3       1 <1>         0.1110 
       7 C3         0.4350    1.1973    5.3640 C.3       1 <1>        -0.1273 
       8 C4        -0.3353    2.4451    5.7937 C.3       1 <1>        -0.1200 
       9 C5        -0.9523    2.2122    7.1720 C.3       1 <1>        -0.1200 
      10 C6        -1.7225    3.4600    7.6016 C.3       1 <1>        -0.1273 
      11 C7        -2.3396    3.2271    8.9799 C.3       1 <1>         0.1110 
      12 N2        -3.0805    4.4275    9.3932 N.pl3     1 <1>        -1.1210 
      13 S2        -2.2842    5.6628   10.3432 S.o2      1 <1>         2.6161 
      14 O3        -1.2448    6.2640    9.5666 O.2       1 <1>        -0.9591 
      15 O4        -3.2365    6.6605   10.7207 O.2       1 <1>        -0.9566 
      16 C8        -1.5721    4.9140   11.8294 C.3       1 <1>        -0.6739 
      17 H1        -2.4348    0.1746    0.4392 H         1 <1>         0.1263 
      18 H2        -2.7717    1.4826    1.5938 H         1 <1>         0.1286 
      19 H3        -1.5691    1.7208    0.3075 H         1 <1>         0.1300 
      20 H4        -0.3524    2.6316    2.8670 H         1 <1>         0.4190 
      21 H5         1.6114    0.5470    3.6840 H         1 <1>         0.0640 
      22 H6         1.7211    2.2871    4.0273 H         1 <1>         0.0819 
      23 H7        -0.2444    0.3490    5.3178 H         1 <1>         0.0741 
      24 H8         1.2244    0.9918    6.0840 H         1 <1>         0.0711 
      25 H9         0.3452    3.2929    5.8387 H         1 <1>         0.0667 
      26 H10       -1.1237    2.6500    5.0725 H         1 <1>         0.0690 
      27 H11       -1.6318    1.3638    7.1257 H         1 <1>         0.0690 
      28 H12       -0.1629    2.0066    7.8920 H         1 <1>         0.0667 
      29 H13       -1.0421    4.3079    7.6468 H         1 <1>         0.0711 
      30 H14       -2.5109    3.6650    6.8804 H         1 <1>         0.0741 
      31 H15       -3.0191    2.3787    8.9338 H         1 <1>         0.0819 
      32 H16       -1.5501    3.0216    9.7000 H         1 <1>         0.0640 
      33 H17       -4.0490    4.5387    9.1289 H         1 <1>         0.4190 
      34 H18       -0.8387    4.1638   11.5410 H         1 <1>         0.1286 
      35 H19       -1.0885    5.6842   12.4266 H         1 <1>         0.1300 
      36 H20       -2.3620    4.4447   12.4123 H         1 <1>         0.1263 
@<TRIPOS>BOND
       1        1        2 1        
       2        1       17 1        
       3        1       18 1        
       4        1       19 1        
       5        2        3 2        
       6        2        4 2        
       7        2        5 1        
       8        5        6 1        
       9        5       20 1        
      10        6        7 1        
      11        6       21 1        
      12        6       22 1        
      13        7        8 1        
      14        7       23 1        
      15        7       24 1        
      16        8        9 1        
      17        8       25 1        
      18        8       26 1        
      19        9       10 1        
      20        9       27 1        
      21        9       28 1        
      22       10       11 1        
      23       10       29 1        
      24       10       30 1        
      25       11       12 1        
      26       11       31 1        
      27       11       32 1        
      28       12       13 1        
      29       12       33 1        
      30       13       14 2        
      31       13       15 2        
      32       13       16 1        
      33       16       34 1        
      34       16       35 1        
      35       16       36 1        
@<TRIPOS>SUBSTRUCTURE
 1 **** 1 TEMP 0 **** **** 0 ROOT

