#        1GCZ_R01_S0001_C0000_L00026_S0001_C0014_G0010_E0001.mol2
#        Tue Jun  6 10:02:45 2017
#        Descriptor:     24    36    27     6     8    13
#        Energy - RMSD - RMSD MassCentre:     -39.7996    999.9999    999.9999
#        Receptor:       1  Surface Point:     1  Conformer:     0
#        Ligand:        26  Surface Point:     1  Conformer:    14
#        BUDE Formal Charge: 0
#        ATOM Count: 36
#        Heavy ATOM Count: 16
@<TRIPOS>MOLECULE
ZINC02096229_0_1GCZ_R01_S0001_C0000_L00026_S0001_C0014_G0010_E0001
 36 35 1 0 0
SMALL
USER_CHARGES
INVALID_CHARGES
@<TRIPOS>ATOM
       1 C1        -2.0006   -0.0006    4.9990 C.3       1 <1>        -0.6739 
       2 S1        -0.4326    0.0000    4.0950 S.o2      1 <1>         2.6162 
       3 O1        -0.6035   -0.6741    2.8456 O.2       1 <1>        -0.9566 
       4 O2         0.5641   -0.6746    4.8672 O.2       1 <1>        -0.9591 
       5 N1         0.0726    1.6497    3.8023 N.pl3     1 <1>        -1.1210 
       6 C2         0.2206    2.5833    4.9280 C.3       1 <1>         0.1110 
       7 C3         1.6640    2.5515    5.4284 C.3       1 <1>        -0.1273 
       8 C4         1.8178    3.5220    6.5987 C.3       1 <1>        -0.1200 
       9 C5         3.2612    3.4902    7.0990 C.3       1 <1>        -0.1200 
      10 C6         3.4150    4.4607    8.2693 C.3       1 <1>        -0.1273 
      11 C7         4.8584    4.4289    8.7697 C.3       1 <1>         0.1110 
      12 N2         5.1866    3.0721    9.2302 N.pl3     1 <1>        -1.1210 
      13 S2         4.9617    2.6409   10.9113 S.o2      1 <1>         2.6161 
      14 O3         5.7814    3.4782   11.7310 O.2       1 <1>        -0.9591 
      15 O4         3.5887    2.8194   11.2687 O.2       1 <1>        -0.9566 
      16 C8         5.4301    0.9099   11.1569 C.3       1 <1>        -0.6739 
      17 H1        -2.3071   -1.0266    5.1914 H         1 <1>         0.1263 
      18 H2        -1.8739    0.5238    5.9438 H         1 <1>         0.1286 
      19 H3        -2.7614    0.5005    4.4045 H         1 <1>         0.1300 
      20 H4         0.2624    1.9597    2.8600 H         1 <1>         0.4190 
      21 H5        -0.0277    3.5900    4.5985 H         1 <1>         0.0640 
      22 H6        -0.4496    2.2889    5.7329 H         1 <1>         0.0819 
      23 H7         1.9111    1.5443    5.7568 H         1 <1>         0.0741 
      24 H8         2.3331    2.8453    4.6224 H         1 <1>         0.0711 
      25 H9         1.5696    4.5287    6.2690 H         1 <1>         0.0667 
      26 H10        1.1476    3.2276    7.4035 H         1 <1>         0.0690 
      27 H11        3.5083    2.4829    7.4277 H         1 <1>         0.0690 
      28 H12        3.9303    3.7840    6.2931 H         1 <1>         0.0667 
      29 H13        3.1669    5.4675    7.9397 H         1 <1>         0.0711 
      30 H14        2.7448    4.1663    9.0742 H         1 <1>         0.0741 
      31 H15        5.5285    4.7098    7.9600 H         1 <1>         0.0819 
      32 H16        4.9711    5.1297    9.5944 H         1 <1>         0.0640 
      33 H17        5.5420    2.3893    8.5762 H         1 <1>         0.4190 
      34 H18        6.4783    0.7780   10.8966 H         1 <1>         0.1286 
      35 H19        5.2777    0.6380   12.1993 H         1 <1>         0.1300 
      36 H20        4.8154    0.2750   10.5222 H         1 <1>         0.1263 
@<TRIPOS>BOND
       1        1        2 1        
       2        1       17 1        
       3        1       18 1        
       4        1       19 1        
       5        2        3 2        
       6        2        4 2        
       7        2        5 1        
       8        5        6 1        
       9        5       20 1        
      10        6        7 1        
      11        6       21 1        
      12        6       22 1        
      13        7        8 1        
      14        7       23 1        
      15        7       24 1        
      16        8        9 1        
      17        8       25 1        
      18        8       26 1        
      19        9       10 1        
      20        9       27 1        
      21        9       28 1        
      22       10       11 1        
      23       10       29 1        
      24       10       30 1        
      25       11       12 1        
      26       11       31 1        
      27       11       32 1        
      28       12       13 1        
      29       12       33 1        
      30       13       14 2        
      31       13       15 2        
      32       13       16 1        
      33       16       34 1        
      34       16       35 1        
      35       16       36 1        
@<TRIPOS>SUBSTRUCTURE
 1 **** 1 TEMP 0 **** **** 0 ROOT

