#        1GCZ_R01_S0001_C0000_L00026_S0001_C0014_G0010_E0001.mol2
#        Tue Jun  6 14:22:15 2017
#        Descriptor:     23    35    29     6     7    13
#        Energy - RMSD - RMSD MassCentre:     -36.3635    999.9999    999.9999
#        Receptor:       1  Surface Point:     1  Conformer:     0
#        Ligand:        26  Surface Point:     1  Conformer:    14
#        BUDE Formal Charge: 0
#        ATOM Count: 36
#        Heavy ATOM Count: 16
@<TRIPOS>MOLECULE
ZINC02096229_0_1GCZ_R01_S0001_C0000_L00026_S0001_C0014_G0010_E0001
 36 35 1 0 0
SMALL
USER_CHARGES
INVALID_CHARGES
@<TRIPOS>ATOM
       1 C1        -2.0005   -1.0007    4.9991 C.3       1 <1>        -0.6739 
       2 S1        -0.7662   -0.3360    3.8543 S.o2      1 <1>         2.6162 
       3 O1        -0.9726   -0.8956    2.5547 O.2       1 <1>        -0.9566 
       4 O2         0.5442   -0.6745    4.3155 O.2       1 <1>        -0.9591 
       5 N1        -0.9245    1.4048    3.7705 N.pl3     1 <1>        -1.1210 
       6 C2        -0.8540    2.2088    4.9990 C.3       1 <1>         0.1110 
       7 C3         0.5885    2.6557    5.2320 C.3       1 <1>        -0.1273 
       8 C4         0.6618    3.4915    6.5092 C.3       1 <1>        -0.1200 
       9 C5         2.1042    3.9384    6.7421 C.3       1 <1>        -0.1200 
      10 C6         2.1775    4.7742    8.0193 C.3       1 <1>        -0.1273 
      11 C7         3.6200    5.2211    8.2523 C.3       1 <1>         0.1110 
      12 N2         4.4795    4.0387    8.4071 N.pl3     1 <1>        -1.1210 
      13 S2         4.7915    3.3872   10.0011 S.o2      1 <1>         2.6161 
      14 O3         5.4413    4.3783   10.8013 O.2       1 <1>        -0.9591 
      15 O4         3.5541    3.0148   10.6135 O.2       1 <1>        -0.9566 
      16 C8         5.8576    1.9315    9.8586 C.3       1 <1>        -0.6739 
      17 H1        -1.8928   -2.0815    5.0598 H         1 <1>         0.1263 
      18 H2        -1.8518   -0.5648    5.9847 H         1 <1>         0.1286 
      19 H3        -2.9973   -0.7545    4.6396 H         1 <1>         0.1300 
      20 H4        -1.0641    1.8565    2.8779 H         1 <1>         0.4190 
      21 H5        -1.4934    3.0831    4.8967 H         1 <1>         0.0640 
      22 H6        -1.1898    1.6101    5.8431 H         1 <1>         0.0819 
      23 H7         1.2267    1.7806    5.3333 H         1 <1>         0.0741 
      24 H8         0.9232    3.2536    4.3868 H         1 <1>         0.0711 
      25 H9         0.0224    4.3658    6.4067 H         1 <1>         0.0667 
      26 H10        0.3260    2.8927    7.3533 H         1 <1>         0.0690 
      27 H11        2.7425    3.0632    6.8437 H         1 <1>         0.0690 
      28 H12        2.4390    4.5363    5.8970 H         1 <1>         0.0667 
      29 H13        1.5383    5.6486    7.9169 H         1 <1>         0.0711 
      30 H14        1.8417    4.1754    8.8634 H         1 <1>         0.0741 
      31 H15        3.9591    5.8078    7.4011 H         1 <1>         0.0819 
      32 H16        3.6699    5.8272    9.1545 H         1 <1>         0.0640 
      33 H17        4.8896    3.6028    7.5936 H         1 <1>         0.4190 
      34 H18        6.8035    2.2185    9.4040 H         1 <1>         0.1286 
      35 H19        6.0408    1.5186   10.8484 H         1 <1>         0.1300 
      36 H20        5.3683    1.1838    9.2380 H         1 <1>         0.1263 
@<TRIPOS>BOND
       1        1        2 1        
       2        1       17 1        
       3        1       18 1        
       4        1       19 1        
       5        2        3 2        
       6        2        4 2        
       7        2        5 1        
       8        5        6 1        
       9        5       20 1        
      10        6        7 1        
      11        6       21 1        
      12        6       22 1        
      13        7        8 1        
      14        7       23 1        
      15        7       24 1        
      16        8        9 1        
      17        8       25 1        
      18        8       26 1        
      19        9       10 1        
      20        9       27 1        
      21        9       28 1        
      22       10       11 1        
      23       10       29 1        
      24       10       30 1        
      25       11       12 1        
      26       11       31 1        
      27       11       32 1        
      28       12       13 1        
      29       12       33 1        
      30       13       14 2        
      31       13       15 2        
      32       13       16 1        
      33       16       34 1        
      34       16       35 1        
      35       16       36 1        
@<TRIPOS>SUBSTRUCTURE
 1 **** 1 TEMP 0 **** **** 0 ROOT

