#        1GCZ_R01_S0001_C0000_L00026_S0001_C0015_G0010_E0001.mol2
#        Tue Jun  6 10:02:45 2017
#        Descriptor:     35    34    26     7     9     8
#        Energy - RMSD - RMSD MassCentre:     -44.9224    999.9999    999.9999
#        Receptor:       1  Surface Point:     1  Conformer:     0
#        Ligand:        26  Surface Point:     1  Conformer:    15
#        BUDE Formal Charge: 0
#        ATOM Count: 36
#        Heavy ATOM Count: 16
@<TRIPOS>MOLECULE
ZINC02096229_0_1GCZ_R01_S0001_C0000_L00026_S0001_C0015_G0010_E0001
 36 35 1 0 0
SMALL
USER_CHARGES
INVALID_CHARGES
@<TRIPOS>ATOM
       1 C1        -0.9990    0.9993   -0.0004 C.3       1 <1>        -0.6739 
       2 S1        -0.7963    0.3451    1.6749 S.o2      1 <1>         2.6162 
       3 O1         0.2916   -0.5826    1.6950 O.2       1 <1>        -0.9566 
       4 O2        -1.9966   -0.3205    2.0761 O.2       1 <1>        -0.9591 
       5 N1        -0.4606    1.6603    2.7793 N.pl3     1 <1>        -1.1210 
       6 C2        -0.2703    1.3868    4.2110 C.3       1 <1>         0.1110 
       7 C3        -1.6081    1.5223    4.9366 C.3       1 <1>        -0.1273 
       8 C4        -1.4103    1.2379    6.4248 C.3       1 <1>        -0.1200 
       9 C5        -2.7482    1.3734    7.1505 C.3       1 <1>        -0.1200 
      10 C6        -2.5504    1.0890    8.6389 C.3       1 <1>        -0.1273 
      11 C7        -3.8882    1.2244    9.3645 C.3       1 <1>         0.1110 
      12 N2        -4.3946    2.5951    9.2049 N.pl3     1 <1>        -1.1210 
      13 S2        -4.0171    3.8119   10.4046 S.o2      1 <1>         2.6161 
      14 O3        -2.6092    4.0623   10.4018 O.2       1 <1>        -0.9591 
      15 O4        -4.7175    5.0194   10.0944 O.2       1 <1>        -0.9566 
      16 C8        -4.5229    3.2229   12.0397 C.3       1 <1>        -0.6739 
      17 H1        -1.2202    0.1822   -0.6838 H         1 <1>         0.1263 
      18 H2        -1.8183    1.7150   -0.0128 H         1 <1>         0.1286 
      19 H3        -0.0804    1.4932   -0.3097 H         1 <1>         0.1300 
      20 H4        -0.3975    2.6068    2.4326 H         1 <1>         0.4190 
      21 H5         0.1119    0.3762    4.3389 H         1 <1>         0.0640 
      22 H6         0.4409    2.0990    4.6242 H         1 <1>         0.0819 
      23 H7        -1.9893    2.5329    4.8074 H         1 <1>         0.0741 
      24 H8        -2.3185    0.8102    4.5220 H         1 <1>         0.0711 
      25 H9        -1.0283    0.2271    6.5527 H         1 <1>         0.0667 
      26 H10       -0.6990    1.9500    6.8381 H         1 <1>         0.0690 
      27 H11       -3.1294    2.3841    7.0214 H         1 <1>         0.0690 
      28 H12       -3.4587    0.6613    6.7359 H         1 <1>         0.0667 
      29 H13       -2.1684    0.0782    8.7667 H         1 <1>         0.0711 
      30 H14       -1.8391    1.8011    9.0520 H         1 <1>         0.0741 
      31 H15       -4.6026    0.5216    8.9409 H         1 <1>         0.0819 
      32 H16       -3.7499    1.0090   10.4220 H         1 <1>         0.0640 
      33 H17       -4.9603    2.8340    8.4030 H         1 <1>         0.4190 
      34 H18       -3.9801    2.3110   12.2799 H         1 <1>         0.1286 
      35 H19       -4.3003    3.9848   12.7838 H         1 <1>         0.1300 
      36 H20       -5.5917    3.0193   12.0365 H         1 <1>         0.1263 
@<TRIPOS>BOND
       1        1        2 1        
       2        1       17 1        
       3        1       18 1        
       4        1       19 1        
       5        2        3 2        
       6        2        4 2        
       7        2        5 1        
       8        5        6 1        
       9        5       20 1        
      10        6        7 1        
      11        6       21 1        
      12        6       22 1        
      13        7        8 1        
      14        7       23 1        
      15        7       24 1        
      16        8        9 1        
      17        8       25 1        
      18        8       26 1        
      19        9       10 1        
      20        9       27 1        
      21        9       28 1        
      22       10       11 1        
      23       10       29 1        
      24       10       30 1        
      25       11       12 1        
      26       11       31 1        
      27       11       32 1        
      28       12       13 1        
      29       12       33 1        
      30       13       14 2        
      31       13       15 2        
      32       13       16 1        
      33       16       34 1        
      34       16       35 1        
      35       16       36 1        
@<TRIPOS>SUBSTRUCTURE
 1 **** 1 TEMP 0 **** **** 0 ROOT

