#        1GCZ_R01_S0001_C0000_L00026_S0001_C0015_G0010_E0001.mol2
#        Tue Jun  6 14:22:16 2017
#        Descriptor:     35    35    28     7     8     8
#        Energy - RMSD - RMSD MassCentre:     -39.8609    999.9999    999.9999
#        Receptor:       1  Surface Point:     1  Conformer:     0
#        Ligand:        26  Surface Point:     1  Conformer:    15
#        BUDE Formal Charge: 0
#        ATOM Count: 36
#        Heavy ATOM Count: 16
@<TRIPOS>MOLECULE
ZINC02096229_0_1GCZ_R01_S0001_C0000_L00026_S0001_C0015_G0010_E0001
 36 35 1 0 0
SMALL
USER_CHARGES
INVALID_CHARGES
@<TRIPOS>ATOM
       1 C1        -0.9988   -0.0004   -0.0003 C.3       1 <1>        -0.6739 
       2 S1        -0.6367   -0.2502    1.7553 S.o2      1 <1>         2.6162 
       3 O1         0.7004   -0.7356    1.9009 O.2       1 <1>        -0.9566 
       4 O2        -1.5513   -1.2047    2.3005 O.2       1 <1>        -0.9591 
       5 N1        -0.8008    1.2692    2.6079 N.pl3     1 <1>        -1.1210 
       6 C2        -0.5722    1.3256    4.0589 C.3       1 <1>         0.1110 
       7 C3        -1.8978    1.1209    4.7906 C.3       1 <1>        -0.1273 
       8 C4        -1.6602    1.1795    6.2989 C.3       1 <1>        -0.1200 
       9 C5        -2.9859    0.9748    7.0308 C.3       1 <1>        -0.1200 
      10 C6        -2.7483    1.0334    8.5392 C.3       1 <1>        -0.1273 
      11 C7        -4.0739    0.8286    9.2710 C.3       1 <1>         0.1110 
      12 N2        -5.0105    1.8973    8.8947 N.pl3     1 <1>        -1.1210 
      13 S2        -5.1047    3.3562    9.8567 S.o2      1 <1>         2.6161 
      14 O3        -3.8660    4.0651    9.7686 O.2       1 <1>        -0.9591 
      15 O4        -6.1637    4.1822    9.3658 O.2       1 <1>        -0.9566 
      16 C8        -5.4296    2.9193   11.5829 C.3       1 <1>        -0.6739 
      17 H1        -0.9088   -0.9481   -0.5269 H         1 <1>         0.1263 
      18 H2        -2.0116    0.3815   -0.1102 H         1 <1>         0.1286 
      19 H3        -0.2935    0.7153   -0.4171 H         1 <1>         0.1300 
      20 H4        -1.0523    2.1068    2.1027 H         1 <1>         0.4190 
      21 H5         0.1262    0.5424    4.3461 H         1 <1>         0.0640 
      22 H6        -0.1578    2.2964    4.3226 H         1 <1>         0.0819 
      23 H7        -2.5954    1.9042    4.5020 H         1 <1>         0.0741 
      24 H8        -2.3115    0.1502    4.5256 H         1 <1>         0.0711 
      25 H9        -0.9618    0.3961    6.5862 H         1 <1>         0.0667 
      26 H10       -1.2457    2.1502    6.5627 H         1 <1>         0.0690 
      27 H11       -3.6835    1.7582    6.7423 H         1 <1>         0.0690 
      28 H12       -3.3997    0.0041    6.7656 H         1 <1>         0.0667 
      29 H13       -2.0499    0.2500    8.8263 H         1 <1>         0.0711 
      30 H14       -2.3338    2.0041    8.8028 H         1 <1>         0.0741 
      31 H15       -4.4942   -0.1363    8.9955 H         1 <1>         0.0819 
      32 H16       -3.9027    0.8572   10.3450 H         1 <1>         0.0640 
      33 H17       -5.5992    1.7892    8.0811 H         1 <1>         0.4190 
      34 H18       -4.6170    2.3011   11.9590 H         1 <1>         0.1286 
      35 H19       -5.5014    3.8268   12.1787 H         1 <1>         0.1300 
      36 H20       -6.3653    2.3676   11.6468 H         1 <1>         0.1263 
@<TRIPOS>BOND
       1        1        2 1        
       2        1       17 1        
       3        1       18 1        
       4        1       19 1        
       5        2        3 2        
       6        2        4 2        
       7        2        5 1        
       8        5        6 1        
       9        5       20 1        
      10        6        7 1        
      11        6       21 1        
      12        6       22 1        
      13        7        8 1        
      14        7       23 1        
      15        7       24 1        
      16        8        9 1        
      17        8       25 1        
      18        8       26 1        
      19        9       10 1        
      20        9       27 1        
      21        9       28 1        
      22       10       11 1        
      23       10       29 1        
      24       10       30 1        
      25       11       12 1        
      26       11       31 1        
      27       11       32 1        
      28       12       13 1        
      29       12       33 1        
      30       13       14 2        
      31       13       15 2        
      32       13       16 1        
      33       16       34 1        
      34       16       35 1        
      35       16       36 1        
@<TRIPOS>SUBSTRUCTURE
 1 **** 1 TEMP 0 **** **** 0 ROOT

