#        1GCZ_R01_S0001_C0000_L00026_S0001_C0016_G0010_E0001.mol2
#        Tue Jun  6 10:02:46 2017
#        Descriptor:      7    33    33     8    10    11
#        Energy - RMSD - RMSD MassCentre:     -37.3780    999.9999    999.9999
#        Receptor:       1  Surface Point:     1  Conformer:     0
#        Ligand:        26  Surface Point:     1  Conformer:    16
#        BUDE Formal Charge: 0
#        ATOM Count: 36
#        Heavy ATOM Count: 16
@<TRIPOS>MOLECULE
ZINC02096229_0_1GCZ_R01_S0001_C0000_L00026_S0001_C0016_G0010_E0001
 36 35 1 0 0
SMALL
USER_CHARGES
INVALID_CHARGES
@<TRIPOS>ATOM
       1 C1         0.0011    1.9998    3.0006 C.3       1 <1>        -0.6739 
       2 S1        -0.5823    0.3724    3.5361 S.o2      1 <1>         2.6162 
       3 O1         0.4446   -0.2767    4.2903 O.2       1 <1>        -0.9566 
       4 O2        -0.9043   -0.4203    2.3904 O.2       1 <1>        -0.9591 
       5 N1        -2.0070    0.5616    4.5346 N.pl3     1 <1>        -1.1210 
       6 C2        -1.9644    1.4338    5.7171 C.3       1 <1>         0.1110 
       7 C3        -1.5857    0.6074    6.9451 C.3       1 <1>        -0.1273 
       8 C4        -2.6357   -0.4799    7.1698 C.3       1 <1>        -0.1200 
       9 C5        -2.2569   -1.3064    8.3979 C.3       1 <1>        -0.1200 
      10 C6        -3.3068   -2.3937    8.6225 C.3       1 <1>        -0.1273 
      11 C7        -2.9280   -3.2201    9.8506 C.3       1 <1>         0.1110 
      12 N2        -3.9380   -4.2661   10.0667 N.pl3     1 <1>        -1.1210 
      13 S2        -5.2995   -3.9620   11.1231 S.o2      1 <1>         2.6161 
      14 O3        -4.8247   -3.6800   12.4421 O.2       1 <1>        -0.9591 
      15 O4        -6.0413   -2.8420   10.6329 O.2       1 <1>        -0.9566 
      16 C8        -6.3677   -5.4227   11.1647 C.3       1 <1>        -0.6739 
      17 H1         0.8792    1.8799    2.3697 H         1 <1>         0.1263 
      18 H2        -0.7849    2.4990    2.4380 H         1 <1>         0.1286 
      19 H3         0.2590    2.5968    3.8726 H         1 <1>         0.1300 
      20 H4        -2.8578    0.0716    4.2981 H         1 <1>         0.4190 
      21 H5        -1.2244    2.2164    5.5633 H         1 <1>         0.0640 
      22 H6        -2.9429    1.8844    5.8699 H         1 <1>         0.0819 
      23 H7        -0.6136    0.1461    6.7852 H         1 <1>         0.0741 
      24 H8        -1.5413    1.2554    7.8180 H         1 <1>         0.0711 
      25 H9        -3.6075   -0.0174    7.3288 H         1 <1>         0.0667 
      26 H10       -2.6797   -1.1266    6.2959 H         1 <1>         0.0690 
      27 H11       -1.2846   -1.7678    8.2379 H         1 <1>         0.0690 
      28 H12       -2.2124   -0.6584    9.2707 H         1 <1>         0.0667 
      29 H13       -4.2787   -1.9311    8.7815 H         1 <1>         0.0711 
      30 H14       -3.3508   -3.0404    7.7486 H         1 <1>         0.0741 
      31 H15       -1.9557   -3.6815    9.6907 H         1 <1>         0.0819 
      32 H16       -2.8836   -2.5722   10.7234 H         1 <1>         0.0640 
      33 H17       -3.8456   -5.1599    9.6054 H         1 <1>         0.4190 
      34 H18       -5.8057   -6.2711   11.5496 H         1 <1>         0.1286 
      35 H19       -7.2211   -5.2287   11.8110 H         1 <1>         0.1300 
      36 H20       -6.7169   -5.6445   10.1584 H         1 <1>         0.1263 
@<TRIPOS>BOND
       1        1        2 1        
       2        1       17 1        
       3        1       18 1        
       4        1       19 1        
       5        2        3 2        
       6        2        4 2        
       7        2        5 1        
       8        5        6 1        
       9        5       20 1        
      10        6        7 1        
      11        6       21 1        
      12        6       22 1        
      13        7        8 1        
      14        7       23 1        
      15        7       24 1        
      16        8        9 1        
      17        8       25 1        
      18        8       26 1        
      19        9       10 1        
      20        9       27 1        
      21        9       28 1        
      22       10       11 1        
      23       10       29 1        
      24       10       30 1        
      25       11       12 1        
      26       11       31 1        
      27       11       32 1        
      28       12       13 1        
      29       12       33 1        
      30       13       14 2        
      31       13       15 2        
      32       13       16 1        
      33       16       34 1        
      34       16       35 1        
      35       16       36 1        
@<TRIPOS>SUBSTRUCTURE
 1 **** 1 TEMP 0 **** **** 0 ROOT

