#        1GCZ_R01_S0001_C0000_L00026_S0001_C0017_G0010_E0001.mol2
#        Tue Jun  6 10:02:47 2017
#        Descriptor:     15    21    10     7     8     5
#        Energy - RMSD - RMSD MassCentre:     -40.5666    999.9999    999.9999
#        Receptor:       1  Surface Point:     1  Conformer:     0
#        Ligand:        26  Surface Point:     1  Conformer:    17
#        BUDE Formal Charge: 0
#        ATOM Count: 36
#        Heavy ATOM Count: 16
@<TRIPOS>MOLECULE
ZINC02096229_0_1GCZ_R01_S0001_C0000_L00026_S0001_C0017_G0010_E0001
 36 35 1 0 0
SMALL
USER_CHARGES
INVALID_CHARGES
@<TRIPOS>ATOM
       1 C1        -0.9990   -0.0001   -3.0008 C.3       1 <1>        -0.6739 
       2 S1         0.0273   -0.6147   -1.6426 S.o2      1 <1>         2.6162 
       3 O1         1.3443   -0.8885   -2.1276 O.2       1 <1>        -0.9566 
       4 O2        -0.5451   -1.8148   -1.1167 O.2       1 <1>        -0.9591 
       5 N1         0.1114    0.5944   -0.3802 N.pl3     1 <1>        -1.1210 
       6 C2        -1.1248    1.1223    0.2148 C.3       1 <1>         0.1110 
       7 C3        -1.4875    0.2975    1.4489 C.3       1 <1>        -0.1273 
       8 C4        -0.3613    0.3984    2.4767 C.3       1 <1>        -0.1200 
       9 C5        -0.7241   -0.4263    3.7108 C.3       1 <1>        -0.1200 
      10 C6         0.4021   -0.3255    4.7387 C.3       1 <1>        -0.1273 
      11 C7         0.0393   -1.1501    5.9728 C.3       1 <1>         0.1110 
      12 N2         1.1226   -1.0532    6.9616 N.pl3     1 <1>        -1.1210 
      13 S2         2.4054   -2.2434    6.9729 S.o2      1 <1>         2.6161 
      14 O3         1.8500   -3.5391    7.2134 O.2       1 <1>        -0.9591 
      15 O4         3.0719   -2.2368    5.7079 O.2       1 <1>        -0.9566 
      16 C8         3.5890   -1.8409    8.2817 C.3       1 <1>        -0.6739 
      17 H1        -1.0607   -0.7576   -3.7792 H         1 <1>         0.1263 
      18 H2        -1.9973    0.2208   -2.6289 H         1 <1>         0.1286 
      19 H3        -0.5549    0.9052   -3.4091 H         1 <1>         0.1300 
      20 H4         1.0092    0.9290   -0.0609 H         1 <1>         0.4190 
      21 H5        -0.9732    2.1604    0.5030 H         1 <1>         0.0640 
      22 H6        -1.9314    1.0615   -0.5129 H         1 <1>         0.0819 
      23 H7        -2.4095    0.6798    1.8814 H         1 <1>         0.0741 
      24 H8        -1.6250   -0.7428    1.1614 H         1 <1>         0.0711 
      25 H9         0.5604    0.0165    2.0426 H         1 <1>         0.0667 
      26 H10       -0.2243    1.4392    2.7626 H         1 <1>         0.0690 
      27 H11       -1.6462   -0.0439    4.1435 H         1 <1>         0.0690 
      28 H12       -0.8617   -1.4666    3.4235 H         1 <1>         0.0667 
      29 H13        1.3237   -0.7074    4.3046 H         1 <1>         0.0711 
      30 H14        0.5391    0.7153    5.0246 H         1 <1>         0.0741 
      31 H15       -0.8828   -0.7679    6.4054 H         1 <1>         0.0819 
      32 H16       -0.0981   -2.1905    5.6855 H         1 <1>         0.0640 
      33 H17        1.1261   -0.2996    7.6341 H         1 <1>         0.4190 
      34 H18        3.0836   -1.8586    9.2451 H         1 <1>         0.1286 
      35 H19        4.3935   -2.5734    8.2801 H         1 <1>         0.1300 
      36 H20        4.0003   -0.8492    8.1054 H         1 <1>         0.1263 
@<TRIPOS>BOND
       1        1        2 1        
       2        1       17 1        
       3        1       18 1        
       4        1       19 1        
       5        2        3 2        
       6        2        4 2        
       7        2        5 1        
       8        5        6 1        
       9        5       20 1        
      10        6        7 1        
      11        6       21 1        
      12        6       22 1        
      13        7        8 1        
      14        7       23 1        
      15        7       24 1        
      16        8        9 1        
      17        8       25 1        
      18        8       26 1        
      19        9       10 1        
      20        9       27 1        
      21        9       28 1        
      22       10       11 1        
      23       10       29 1        
      24       10       30 1        
      25       11       12 1        
      26       11       31 1        
      27       11       32 1        
      28       12       13 1        
      29       12       33 1        
      30       13       14 2        
      31       13       15 2        
      32       13       16 1        
      33       16       34 1        
      34       16       35 1        
      35       16       36 1        
@<TRIPOS>SUBSTRUCTURE
 1 **** 1 TEMP 0 **** **** 0 ROOT

