#        1GCZ_R01_S0001_C0000_L00003_S0001_C0045_G0010_E0001.mol2
#        Tue Jun  6 14:04:58 2017
#        Descriptor:      8    24    31    11     9    15
#        Energy - RMSD - RMSD MassCentre:     -60.9723    999.9999    999.9999
#        Receptor:       1  Surface Point:     1  Conformer:     0
#        Ligand:         3  Surface Point:     1  Conformer:    45
#        BUDE Formal Charge: 0
#        ATOM Count: 58
#        Heavy ATOM Count: 30
@<TRIPOS>MOLECULE
ZINC61580633_1GCZ_R01_S0001_C0000_L00003_S0001_C0045_G0010_E0001
 58 59 0 0 0
SMALL
USER_CHARGES
@<TRIPOS>ATOM
       1 C1         9.6757   -0.0776    4.3438 C.3       1 <0>        -0.1532 
       2 C2         9.9090    0.4657    5.7506 C.3       1 <0>        -0.1224 
       3 C3         8.5630    0.6981    6.4356 C.3       1 <0>        -0.1198 
       4 C4         7.7563    1.7213    5.6375 C.3       1 <0>         0.0610 
       5 O1         6.4967    1.9387    6.2786 O.3       1 <0>        -0.3878 
       6 C5         5.7212    0.7395    6.3544 C.3       1 <0>         0.0487 
       7 C6         4.3920    1.0365    7.0470 C.3       1 <0>         0.1244 
       8 N1         3.5950   -0.1962    7.1249 N.am      1 <0>        -0.7216 
       9 C7         3.0413   -0.7001    6.0257 C.2       1 <0>         0.5161 
      10 O2         3.1958   -0.1356    4.9440 O.2       1 <0>        -0.5151 
      11 C8         2.2225   -1.9664    6.1058 C.3       1 <0>         0.0490 
      12 O3         1.0013   -1.7002    6.8004 O.3       1 <0>        -0.3194 
      13 C9         0.1342   -2.7208    6.9707 C.2       1 <0>         0.5417 
      14 O4         0.4029   -3.8292    6.5375 O.2       1 <0>        -0.5337 
      15 C10       -1.1431   -2.4949    7.6830 C.2       1 <0>        -0.2559 
      16 C11       -2.1684   -3.5373    7.9126 C.2       1 <0>        -0.0791 
      17 C12       -3.2325   -3.0685    8.5684 C.2       1 <0>        -0.2585 
      18 S1        -3.0868   -1.3500    8.9657 S.3       1 <0>         0.3028 
      19 C13       -1.5000   -1.3041    8.1832 C.2       1 <0>         0.0893 
      20 N2        -0.7014   -0.1966    8.0709 N.am      1 <0>        -0.6099 
      21 C14       -1.0978    0.9649    8.5833 C.2       1 <0>         0.5551 
      22 O5        -2.1821    1.0449    9.1584 O.2       1 <0>        -0.4939 
      23 C15       -0.2339    2.1603    8.4612 C.ar      1 <0>        -0.1466 
      24 C16       -0.6916    3.3632    9.0123 C.ar      1 <0>        -0.0772 
      25 C17        0.0464    4.5436    8.8648 C.ar      1 <0>        -0.1241 
      26 C18        1.2522    4.5450    8.1538 C.ar      1 <0>        -0.0446 
      27 C19        1.7386    3.3337    7.6475 C.ar      1 <0>        -0.1261 
      28 C20        1.0118    2.1500    7.8225 C.ar      1 <0>        -0.0460 
      29 C21        2.0021    5.8402    7.9526 C.3       1 <0>        -0.0928 
      30 C22        1.5370    6.5004    6.6580 C.3       1 <0>        -0.1485 
      31 H1         9.1065    0.6473    3.7656 H         1 <0>         0.0567 
      32 H2         9.1201   -1.0111    4.4038 H         1 <0>         0.0554 
      33 H3        10.6342   -0.2556    3.8609 H         1 <0>         0.0557 
      34 H4        10.4888   -0.2529    6.3261 H         1 <0>         0.0632 
      35 H5        10.4522    1.4066    5.6913 H         1 <0>         0.0635 
      36 H6         8.0129   -0.2393    6.4829 H         1 <0>         0.0711 
      37 H7         8.7284    1.0737    7.4432 H         1 <0>         0.0704 
      38 H8         8.3050    2.6595    5.5900 H         1 <0>         0.0498 
      39 H9         7.5897    1.3464    4.6298 H         1 <0>         0.0505 
      40 H10        6.2665   -0.0104    6.9236 H         1 <0>         0.0584 
      41 H11        5.5308    0.3660    5.3504 H         1 <0>         0.0702 
      42 H12        3.8454    1.7856    6.4782 H         1 <0>         0.0872 
      43 H13        4.5812    1.4094    8.0514 H         1 <0>         0.0805 
      44 H14        3.4675   -0.6606    8.0127 H         1 <0>         0.4058 
      45 H15        1.9983   -2.3182    5.1010 H         1 <0>         0.1008 
      46 H16        2.7845   -2.7291    6.6407 H         1 <0>         0.0999 
      47 H17       -2.0431   -4.5596    7.5877 H         1 <0>         0.1557 
      48 H18       -4.0769   -3.6878    8.8322 H         1 <0>         0.1929 
      49 H19        0.1890   -0.2623    7.5988 H         1 <0>         0.4317 
      50 H20       -1.6259    3.3842    9.5536 H         1 <0>         0.1287 
      51 H21       -0.3136    5.4642    9.2996 H         1 <0>         0.1326 
      52 H22        2.6833    3.3250    7.1242 H         1 <0>         0.1342 
      53 H23        1.4646    1.2380    7.4626 H         1 <0>         0.1410 
      54 H24        3.0689    5.6353    7.8931 H         1 <0>         0.0777 
      55 H25        1.8063    6.5058    8.7907 H         1 <0>         0.0771 
      56 H26        0.4726    6.7161    6.7237 H         1 <0>         0.0623 
      57 H27        1.7204    5.8280    5.8224 H         1 <0>         0.0572 
      58 H28        2.0868    7.4268    6.5063 H         1 <0>         0.0578 
@<TRIPOS>BOND
       1        1        2 1        
       2        1       31 1        
       3        1       32 1        
       4        1       33 1        
       5        2        3 1        
       6        2       34 1        
       7        2       35 1        
       8        3        4 1        
       9        3       36 1        
      10        3       37 1        
      11        4        5 1        
      12        4       38 1        
      13        4       39 1        
      14        5        6 1        
      15        6        7 1        
      16        6       40 1        
      17        6       41 1        
      18        7        8 1        
      19        7       42 1        
      20        7       43 1        
      21        8        9 am       
      22        8       44 1        
      23        9       10 2        
      24        9       11 1        
      25       11       12 1        
      26       11       45 1        
      27       11       46 1        
      28       12       13 1        
      29       13       14 2        
      30       13       15 1        
      31       15       19 2        
      32       15       16 1        
      33       16       17 2        
      34       16       47 1        
      35       17       18 1        
      36       17       48 1        
      37       18       19 1        
      38       19       20 1        
      39       20       21 am       
      40       20       49 1        
      41       21       22 2        
      42       21       23 1        
      43       23       28 ar       
      44       23       24 ar       
      45       24       25 ar       
      46       24       50 1        
      47       25       26 ar       
      48       25       51 1        
      49       26       27 ar       
      50       26       29 1        
      51       27       28 ar       
      52       27       52 1        
      53       28       53 1        
      54       29       30 1        
      55       29       54 1        
      56       29       55 1        
      57       30       56 1        
      58       30       57 1        
      59       30       58 1        

