#        1GCZ_R01_S0001_C0000_L00026_S0001_C0018_G0010_E0001.mol2
#        Tue Jun  6 10:02:47 2017
#        Descriptor:      8    22     9     5     8    10
#        Energy - RMSD - RMSD MassCentre:     -40.8366    999.9999    999.9999
#        Receptor:       1  Surface Point:     1  Conformer:     0
#        Ligand:        26  Surface Point:     1  Conformer:    18
#        BUDE Formal Charge: 0
#        ATOM Count: 36
#        Heavy ATOM Count: 16
@<TRIPOS>MOLECULE
ZINC02096229_0_1GCZ_R01_S0001_C0000_L00026_S0001_C0018_G0010_E0001
 36 35 1 0 0
SMALL
USER_CHARGES
INVALID_CHARGES
@<TRIPOS>ATOM
       1 C1        -3.0002    0.0002    1.9988 C.3       1 <1>        -0.6739 
       2 S1        -1.2176    0.2020    1.7592 S.o2      1 <1>         2.6162 
       3 O1        -0.9509    0.4779    0.3818 O.2       1 <1>        -0.9566 
       4 O2        -0.5451   -1.0002    2.1425 O.2       1 <1>        -0.9591 
       5 N1        -0.6427    1.5315    2.7413 N.pl3     1 <1>        -1.1210 
       6 C2         0.7834    1.8875    2.7333 C.3       1 <1>         0.1110 
       7 C3         1.4991    1.1444    3.8604 C.3       1 <1>        -0.1273 
       8 C4         2.9816    1.5144    3.8521 C.3       1 <1>        -0.1200 
       9 C5         3.6974    0.7713    4.9793 C.3       1 <1>        -0.1200 
      10 C6         5.1800    1.1413    4.9710 C.3       1 <1>        -0.1273 
      11 C7         5.8957    0.3982    6.0980 C.3       1 <1>         0.1110 
      12 N2         5.7656   -1.0509    5.8883 N.pl3     1 <1>        -1.1210 
      13 S2         6.9990   -1.9204    5.0023 S.o2      1 <1>         2.6161 
      14 O3         6.7028   -3.3192    5.0228 O.2       1 <1>        -0.9591 
      15 O4         7.0281   -1.4581    3.6494 O.2       1 <1>        -0.9566 
      16 C8         8.6108   -1.6326    5.7741 C.3       1 <1>        -0.6739 
      17 H1        -3.3540   -0.8345    1.3974 H         1 <1>         0.1263 
      18 H2        -3.2043   -0.1965    3.0491 H         1 <1>         0.1286 
      19 H3        -3.5118    0.9105    1.6936 H         1 <1>         0.1300 
      20 H4        -1.2911    2.0538    3.3130 H         1 <1>         0.4190 
      21 H5         1.2213    1.6070    1.7776 H         1 <1>         0.0640 
      22 H6         0.8896    2.9602    2.8806 H         1 <1>         0.0819 
      23 H7         1.0599    1.4253    4.8152 H         1 <1>         0.0741 
      24 H8         1.3916    0.0719    3.7124 H         1 <1>         0.0711 
      25 H9         3.4196    1.2338    2.8964 H         1 <1>         0.0667 
      26 H10        3.0879    2.5872    3.9993 H         1 <1>         0.0690 
      27 H11        3.2583    1.0522    5.9342 H         1 <1>         0.0690 
      28 H12        3.5898   -0.3012    4.8313 H         1 <1>         0.0667 
      29 H13        5.6178    0.8607    4.0153 H         1 <1>         0.0711 
      30 H14        5.2861    2.2141    5.1182 H         1 <1>         0.0741 
      31 H15        6.9486    0.6718    6.1005 H         1 <1>         0.0819 
      32 H16        5.4477    0.6689    7.0518 H         1 <1>         0.0640 
      33 H17        4.9643   -1.5440    6.2557 H         1 <1>         0.4190 
      34 H18        8.5912   -1.9961    6.7994 H         1 <1>         0.1286 
      35 H19        9.3794   -2.1623    5.2153 H         1 <1>         0.1300 
      36 H20        8.8287   -0.5665    5.7704 H         1 <1>         0.1263 
@<TRIPOS>BOND
       1        1        2 1        
       2        1       17 1        
       3        1       18 1        
       4        1       19 1        
       5        2        3 2        
       6        2        4 2        
       7        2        5 1        
       8        5        6 1        
       9        5       20 1        
      10        6        7 1        
      11        6       21 1        
      12        6       22 1        
      13        7        8 1        
      14        7       23 1        
      15        7       24 1        
      16        8        9 1        
      17        8       25 1        
      18        8       26 1        
      19        9       10 1        
      20        9       27 1        
      21        9       28 1        
      22       10       11 1        
      23       10       29 1        
      24       10       30 1        
      25       11       12 1        
      26       11       31 1        
      27       11       32 1        
      28       12       13 1        
      29       12       33 1        
      30       13       14 2        
      31       13       15 2        
      32       13       16 1        
      33       16       34 1        
      34       16       35 1        
      35       16       36 1        
@<TRIPOS>SUBSTRUCTURE
 1 **** 1 TEMP 0 **** **** 0 ROOT

