#        1GCZ_R01_S0001_C0000_L00026_S0001_C0018_G0010_E0001.mol2
#        Tue Jun  6 14:22:20 2017
#        Descriptor:     33    35    29     7     8     4
#        Energy - RMSD - RMSD MassCentre:     -48.6392    999.9999    999.9999
#        Receptor:       1  Surface Point:     1  Conformer:     0
#        Ligand:        26  Surface Point:     1  Conformer:    18
#        BUDE Formal Charge: 0
#        ATOM Count: 36
#        Heavy ATOM Count: 16
@<TRIPOS>MOLECULE
ZINC02096229_0_1GCZ_R01_S0001_C0000_L00026_S0001_C0018_G0010_E0001
 36 35 1 0 0
SMALL
USER_CHARGES
INVALID_CHARGES
@<TRIPOS>ATOM
       1 C1        -0.9989   -0.0001   -4.0006 C.3       1 <1>        -0.6739 
       2 S1        -0.0565    0.0537   -2.4564 S.o2      1 <1>         2.6162 
       3 O1         1.3345   -0.1149   -2.7418 O.2       1 <1>        -0.9566 
       4 O2        -0.4957   -0.9972   -1.5920 O.2       1 <1>        -0.9591 
       5 N1        -0.3071    1.5981   -1.6724 N.pl3     1 <1>        -1.1210 
       6 C2         0.3434    1.8825   -0.3852 C.3       1 <1>         0.1110 
       7 C3        -0.5959    1.4943    0.7557 C.3       1 <1>        -0.1273 
       8 C4         0.0803    1.7898    2.0937 C.3       1 <1>        -0.1200 
       9 C5        -0.8590    1.4016    3.2347 C.3       1 <1>        -0.1200 
      10 C6        -0.1827    1.6972    4.5728 C.3       1 <1>        -0.1273 
      11 C7        -1.1219    1.3090    5.7138 C.3       1 <1>         0.1110 
      12 N2        -1.4167   -0.1291    5.6368 N.pl3     1 <1>        -1.1210 
      13 S2        -0.4319   -1.2722    6.5234 S.o2      1 <1>         2.6161 
      14 O3        -0.9764   -2.5859    6.3736 O.2       1 <1>        -0.9591 
      15 O4         0.9031   -1.2473    6.0116 O.2       1 <1>        -0.9566 
      16 C8        -0.4157   -0.8209    8.2761 C.3       1 <1>        -0.6739 
      17 H1        -0.8523   -0.9654   -4.4807 H         1 <1>         0.1263 
      18 H2        -2.0558    0.1414   -3.7849 H         1 <1>         0.1286 
      19 H3        -0.6542    0.7911   -4.6629 H         1 <1>         0.1300 
      20 H4        -0.8984    2.2934   -2.1047 H         1 <1>         0.4190 
      21 H5         1.2639    1.3074   -0.3099 H         1 <1>         0.0640 
      22 H6         0.5723    2.9442   -0.3221 H         1 <1>         0.0819 
      23 H7        -1.5160    2.0695    0.6787 H         1 <1>         0.0741 
      24 H8        -0.8246    0.4326    0.6910 H         1 <1>         0.0711 
      25 H9         1.0008    1.2146    2.1691 H         1 <1>         0.0667 
      26 H10        0.3094    2.8516    2.1568 H         1 <1>         0.0690 
      27 H11       -1.7791    1.9770    3.1579 H         1 <1>         0.0690 
      28 H12       -1.0877    0.3399    3.1700 H         1 <1>         0.0667 
      29 H13        0.7377    1.1219    4.6482 H         1 <1>         0.0711 
      30 H14        0.0462    2.7590    4.6359 H         1 <1>         0.0741 
      31 H15       -0.6458    1.5318    6.6662 H         1 <1>         0.0819 
      32 H16       -2.0475    1.8746    5.6291 H         1 <1>         0.0640 
      33 H17       -2.1875   -0.4567    5.0723 H         1 <1>         0.4190 
      34 H18       -1.4305   -0.8523    8.6674 H         1 <1>         0.1286 
      35 H19        0.2074   -1.5237    8.8252 H         1 <1>         0.1300 
      36 H20       -0.0143    0.1843    8.3875 H         1 <1>         0.1263 
@<TRIPOS>BOND
       1        1        2 1        
       2        1       17 1        
       3        1       18 1        
       4        1       19 1        
       5        2        3 2        
       6        2        4 2        
       7        2        5 1        
       8        5        6 1        
       9        5       20 1        
      10        6        7 1        
      11        6       21 1        
      12        6       22 1        
      13        7        8 1        
      14        7       23 1        
      15        7       24 1        
      16        8        9 1        
      17        8       25 1        
      18        8       26 1        
      19        9       10 1        
      20        9       27 1        
      21        9       28 1        
      22       10       11 1        
      23       10       29 1        
      24       10       30 1        
      25       11       12 1        
      26       11       31 1        
      27       11       32 1        
      28       12       13 1        
      29       12       33 1        
      30       13       14 2        
      31       13       15 2        
      32       13       16 1        
      33       16       34 1        
      34       16       35 1        
      35       16       36 1        
@<TRIPOS>SUBSTRUCTURE
 1 **** 1 TEMP 0 **** **** 0 ROOT

