#        1GCZ_R01_S0001_C0000_L00026_S0001_C0019_G0010_E0001.mol2
#        Tue Jun  6 10:02:48 2017
#        Descriptor:      2    34    29     8     9     8
#        Energy - RMSD - RMSD MassCentre:     -38.5039    999.9999    999.9999
#        Receptor:       1  Surface Point:     1  Conformer:     0
#        Ligand:        26  Surface Point:     1  Conformer:    19
#        BUDE Formal Charge: 0
#        ATOM Count: 36
#        Heavy ATOM Count: 16
@<TRIPOS>MOLECULE
ZINC02096229_0_1GCZ_R01_S0001_C0000_L00026_S0001_C0019_G0010_E0001
 36 35 1 0 0
SMALL
USER_CHARGES
INVALID_CHARGES
@<TRIPOS>ATOM
       1 C1         0.0012    0.9997    0.0001 C.3       1 <1>        -0.6739 
       2 S1        -0.3827    0.2417    1.5982 S.o2      1 <1>         2.6162 
       3 O1         0.8107   -0.3064    2.1638 O.2       1 <1>        -0.9566 
       4 O2        -1.3440   -0.8007    1.4137 O.2       1 <1>        -0.9591 
       5 N1        -1.0356    1.4539    2.6783 N.pl3     1 <1>        -1.1210 
       6 C2        -1.4423    1.0812    4.0408 C.3       1 <1>         0.1110 
       7 C3        -0.2709    1.2967    4.9979 C.3       1 <1>        -0.1273 
       8 C4        -0.6937    0.9093    6.4142 C.3       1 <1>        -0.1200 
       9 C5         0.4777    1.1247    7.3713 C.3       1 <1>        -0.1200 
      10 C6         0.0549    0.7372    8.7876 C.3       1 <1>        -0.1273 
      11 C7         1.2263    0.9527    9.7448 C.3       1 <1>         0.1110 
      12 N2         1.6119    2.3711    9.7345 N.pl3     1 <1>        -1.1210 
      13 S2         0.9116    3.4761   10.8968 S.o2      1 <1>         2.6161 
      14 O3         1.5175    4.7635   10.7543 O.2       1 <1>        -0.9591 
      15 O4        -0.4954    3.5819   10.6648 O.2       1 <1>        -0.9566 
      16 C8         1.2028    2.8532   12.5711 C.3       1 <1>        -0.6739 
      17 H1         0.3951    0.2424   -0.6743 H         1 <1>         0.1263 
      18 H2        -0.9043    1.4283   -0.4241 H         1 <1>         0.1286 
      19 H3         0.7430    1.7830    0.1400 H         1 <1>         0.1300 
      20 H4        -1.1325    2.4092    2.3651 H         1 <1>         0.4190 
      21 H5        -2.2825    1.6996    4.3497 H         1 <1>         0.0640 
      22 H6        -1.7369    0.0339    4.0569 H         1 <1>         0.0819 
      23 H7         0.5687    0.6784    4.6875 H         1 <1>         0.0741 
      24 H8         0.0230    2.3441    4.9803 H         1 <1>         0.0711 
      25 H9        -1.5338    1.5277    6.7232 H         1 <1>         0.0667 
      26 H10       -0.9883   -0.1380    6.4303 H         1 <1>         0.0690 
      27 H11        1.3173    0.5062    7.0609 H         1 <1>         0.0690 
      28 H12        0.7717    2.1720    7.3537 H         1 <1>         0.0667 
      29 H13       -0.7853    1.3557    9.0967 H         1 <1>         0.0711 
      30 H14       -0.2397   -0.3101    8.8039 H         1 <1>         0.0741 
      31 H15        0.9295    0.6642   10.7510 H         1 <1>         0.0819 
      32 H16        2.0705    0.3443    9.4266 H         1 <1>         0.0640 
      33 H17        2.2807    2.7072    9.0564 H         1 <1>         0.4190 
      34 H18        2.2737    2.7849   12.7508 H         1 <1>         0.1286 
      35 H19        0.7559    3.5333   13.2932 H         1 <1>         0.1300 
      36 H20        0.7536    1.8676   12.6739 H         1 <1>         0.1263 
@<TRIPOS>BOND
       1        1        2 1        
       2        1       17 1        
       3        1       18 1        
       4        1       19 1        
       5        2        3 2        
       6        2        4 2        
       7        2        5 1        
       8        5        6 1        
       9        5       20 1        
      10        6        7 1        
      11        6       21 1        
      12        6       22 1        
      13        7        8 1        
      14        7       23 1        
      15        7       24 1        
      16        8        9 1        
      17        8       25 1        
      18        8       26 1        
      19        9       10 1        
      20        9       27 1        
      21        9       28 1        
      22       10       11 1        
      23       10       29 1        
      24       10       30 1        
      25       11       12 1        
      26       11       31 1        
      27       11       32 1        
      28       12       13 1        
      29       12       33 1        
      30       13       14 2        
      31       13       15 2        
      32       13       16 1        
      33       16       34 1        
      34       16       35 1        
      35       16       36 1        
@<TRIPOS>SUBSTRUCTURE
 1 **** 1 TEMP 0 **** **** 0 ROOT

