#        1GCZ_R01_S0001_C0000_L00026_S0001_C0019_G0010_E0001.mol2
#        Tue Jun  6 14:22:22 2017
#        Descriptor:      1    34    34     7     9     7
#        Energy - RMSD - RMSD MassCentre:     -37.0832    999.9999    999.9999
#        Receptor:       1  Surface Point:     1  Conformer:     0
#        Ligand:        26  Surface Point:     1  Conformer:    19
#        BUDE Formal Charge: 0
#        ATOM Count: 36
#        Heavy ATOM Count: 16
@<TRIPOS>MOLECULE
ZINC02096229_0_1GCZ_R01_S0001_C0000_L00026_S0001_C0019_G0010_E0001
 36 35 1 0 0
SMALL
USER_CHARGES
INVALID_CHARGES
@<TRIPOS>ATOM
       1 C1        -0.9990    1.0008   -1.0000 C.3       1 <1>        -0.6739 
       2 S1        -0.5346    0.4962    0.6749 S.o2      1 <1>         2.6162 
       3 O1         0.6416    1.2035    1.0760 O.2       1 <1>        -0.9566 
       4 O2        -0.2745   -0.9097    0.6953 O.2       1 <1>        -0.9591 
       5 N1        -1.8409    0.8646    1.7796 N.pl3     1 <1>        -1.1210 
       6 C2        -1.7120    0.5336    3.2060 C.3       1 <1>         0.1110 
       7 C3        -1.1430    1.7360    3.9576 C.3       1 <1>        -0.1273 
       8 C4        -1.0090    1.3918    5.4403 C.3       1 <1>        -0.1200 
       9 C5        -0.4400    2.5942    6.1920 C.3       1 <1>        -0.1200 
      10 C6        -0.3059    2.2500    7.6747 C.3       1 <1>        -0.1273 
      11 C7         0.2630    3.4525    8.4264 C.3       1 <1>         0.1110 
      12 N2        -0.6503    4.5954    8.2838 N.pl3     1 <1>        -1.1210 
      13 S2        -1.8942    4.8756    9.4825 S.o2      1 <1>         2.6161 
      14 O3        -2.5785    6.0947    9.1820 O.2       1 <1>        -0.9591 
      15 O4        -2.8239    3.7893    9.4663 O.2       1 <1>        -0.9566 
      16 C8        -1.1350    4.9968   11.1211 C.3       1 <1>        -0.6739 
      17 H1        -0.1913    0.7597   -1.6877 H         1 <1>         0.1263 
      18 H2        -1.9015    0.4725   -1.3002 H         1 <1>         0.1286 
      19 H3        -1.1830    2.0729   -1.0172 H         1 <1>         0.1300 
      20 H4        -2.6828    1.3048    1.4368 H         1 <1>         0.4190 
      21 H5        -2.6908    0.2828    3.6093 H         1 <1>         0.0640 
      22 H6        -1.0430   -0.3168    3.3212 H         1 <1>         0.0819 
      23 H7        -0.1647    1.9861    3.5529 H         1 <1>         0.0741 
      24 H8        -1.8125    2.5856    3.8411 H         1 <1>         0.0711 
      25 H9        -1.9879    1.1411    5.8437 H         1 <1>         0.0667 
      26 H10       -0.3401    0.5415    5.5555 H         1 <1>         0.0690 
      27 H11        0.5385    2.8442    5.7873 H         1 <1>         0.0690 
      28 H12       -1.1094    3.4439    6.0754 H         1 <1>         0.0667 
      29 H13       -1.2849    1.9994    8.0781 H         1 <1>         0.0711 
      30 H14        0.3629    1.3997    7.7900 H         1 <1>         0.0741 
      31 H15        0.3709    3.2029    9.4799 H         1 <1>         0.0819 
      32 H16        1.2357    3.7109    8.0128 H         1 <1>         0.0640 
      33 H17       -0.5596    5.2183    7.4940 H         1 <1>         0.4190 
      34 H18       -0.4370    5.8314   11.1359 H         1 <1>         0.1286 
      35 H19       -1.9096    5.1578   11.8679 H         1 <1>         0.1300 
      36 H20       -0.6027    4.0741   11.3427 H         1 <1>         0.1263 
@<TRIPOS>BOND
       1        1        2 1        
       2        1       17 1        
       3        1       18 1        
       4        1       19 1        
       5        2        3 2        
       6        2        4 2        
       7        2        5 1        
       8        5        6 1        
       9        5       20 1        
      10        6        7 1        
      11        6       21 1        
      12        6       22 1        
      13        7        8 1        
      14        7       23 1        
      15        7       24 1        
      16        8        9 1        
      17        8       25 1        
      18        8       26 1        
      19        9       10 1        
      20        9       27 1        
      21        9       28 1        
      22       10       11 1        
      23       10       29 1        
      24       10       30 1        
      25       11       12 1        
      26       11       31 1        
      27       11       32 1        
      28       12       13 1        
      29       12       33 1        
      30       13       14 2        
      31       13       15 2        
      32       13       16 1        
      33       16       34 1        
      34       16       35 1        
      35       16       36 1        
@<TRIPOS>SUBSTRUCTURE
 1 **** 1 TEMP 0 **** **** 0 ROOT

