#        1GCZ_R01_S0001_C0000_L00026_S0001_C0020_G0010_E0001.mol2
#        Tue Jun  6 10:02:48 2017
#        Descriptor:      4    34    32     8     9     7
#        Energy - RMSD - RMSD MassCentre:     -39.9932    999.9999    999.9999
#        Receptor:       1  Surface Point:     1  Conformer:     0
#        Ligand:        26  Surface Point:     1  Conformer:    20
#        BUDE Formal Charge: 0
#        ATOM Count: 36
#        Heavy ATOM Count: 16
@<TRIPOS>MOLECULE
ZINC02096229_0_1GCZ_R01_S0001_C0000_L00026_S0001_C0020_G0010_E0001
 36 35 1 0 0
SMALL
USER_CHARGES
INVALID_CHARGES
@<TRIPOS>ATOM
       1 C1         0.0012    1.0001   -0.9995 C.3       1 <1>        -0.6739 
       2 S1        -0.3845   -0.1960    0.3028 S.o2      1 <1>         2.6162 
       3 O1         0.7709   -0.3981    1.1206 O.2       1 <1>        -0.9566 
       4 O2        -0.7715   -1.4387   -0.2893 O.2       1 <1>        -0.9591 
       5 N1        -1.6955    0.4150    1.2879 N.pl3     1 <1>        -1.1210 
       6 C2        -1.5875    1.7403    1.9144 C.3       1 <1>         0.1110 
       7 C3        -1.0051    1.5927    3.3193 C.3       1 <1>        -0.1273 
       8 C4        -1.9318    0.7199    4.1646 C.3       1 <1>        -0.1200 
       9 C5        -1.3494    0.5723    5.5695 C.3       1 <1>        -0.1200 
      10 C6        -2.2760   -0.3006    6.4149 C.3       1 <1>        -0.1273 
      11 C7        -1.6936   -0.4482    7.8198 C.3       1 <1>         0.1110 
      12 N2        -0.3755   -1.0938    7.7375 N.pl3     1 <1>        -1.1210 
      13 S2        -0.2436   -2.8332    7.8775 S.o2      1 <1>         2.6161 
      14 O3        -0.7379   -3.2467    9.1540 O.2       1 <1>        -0.9591 
      15 O4        -1.0128   -3.4534    6.8438 O.2       1 <1>        -0.9566 
      16 C8         1.4919   -3.3206    7.7146 C.3       1 <1>        -0.6739 
      17 H1         0.8078    0.6134   -1.6188 H         1 <1>         0.1263 
      18 H2        -0.8818    1.1638   -1.6137 H         1 <1>         0.1286 
      19 H3         0.3089    1.9406   -0.5477 H         1 <1>         0.1300 
      20 H4        -2.5259   -0.1432    1.4257 H         1 <1>         0.4190 
      21 H5        -0.9351    2.3719    1.3151 H         1 <1>         0.0640 
      22 H6        -2.5749    2.1932    1.9761 H         1 <1>         0.0819 
      23 H7        -0.0240    1.1269    3.2573 H         1 <1>         0.0741 
      24 H8        -0.9127    2.5749    3.7780 H         1 <1>         0.0711 
      25 H9        -2.9129    1.1864    4.2252 H         1 <1>         0.0667 
      26 H10       -2.0240   -0.2616    3.7044 H         1 <1>         0.0690 
      27 H11       -0.3681    0.1063    5.5075 H         1 <1>         0.0690 
      28 H12       -1.2569    1.5545    6.0282 H         1 <1>         0.0667 
      29 H13       -3.2571    0.1659    6.4754 H         1 <1>         0.0711 
      30 H14       -2.3682   -1.2821    5.9546 H         1 <1>         0.0741 
      31 H15       -1.5888    0.5351    8.2734 H         1 <1>         0.0819 
      32 H16       -2.3599   -1.0587    8.4256 H         1 <1>         0.0640 
      33 H17        0.4533   -0.5332    7.6004 H         1 <1>         0.4190 
      34 H18        2.0740   -2.8581    8.5091 H         1 <1>         0.1286 
      35 H19        1.5723   -4.4031    7.7883 H         1 <1>         0.1300 
      36 H20        1.8708   -2.9930    6.7486 H         1 <1>         0.1263 
@<TRIPOS>BOND
       1        1        2 1        
       2        1       17 1        
       3        1       18 1        
       4        1       19 1        
       5        2        3 2        
       6        2        4 2        
       7        2        5 1        
       8        5        6 1        
       9        5       20 1        
      10        6        7 1        
      11        6       21 1        
      12        6       22 1        
      13        7        8 1        
      14        7       23 1        
      15        7       24 1        
      16        8        9 1        
      17        8       25 1        
      18        8       26 1        
      19        9       10 1        
      20        9       27 1        
      21        9       28 1        
      22       10       11 1        
      23       10       29 1        
      24       10       30 1        
      25       11       12 1        
      26       11       31 1        
      27       11       32 1        
      28       12       13 1        
      29       12       33 1        
      30       13       14 2        
      31       13       15 2        
      32       13       16 1        
      33       16       34 1        
      34       16       35 1        
      35       16       36 1        
@<TRIPOS>SUBSTRUCTURE
 1 **** 1 TEMP 0 **** **** 0 ROOT

