#        1GCZ_R01_S0001_C0000_L00026_S0001_C0020_G0010_E0001.mol2
#        Tue Jun  6 14:22:23 2017
#        Descriptor:     33    30    29     7    10    11
#        Energy - RMSD - RMSD MassCentre:     -36.9946    999.9999    999.9999
#        Receptor:       1  Surface Point:     1  Conformer:     0
#        Ligand:        26  Surface Point:     1  Conformer:    20
#        BUDE Formal Charge: 0
#        ATOM Count: 36
#        Heavy ATOM Count: 16
@<TRIPOS>MOLECULE
ZINC02096229_0_1GCZ_R01_S0001_C0000_L00026_S0001_C0020_G0010_E0001
 36 35 1 0 0
SMALL
USER_CHARGES
INVALID_CHARGES
@<TRIPOS>ATOM
       1 C1        -0.9992    2.0005    2.9992 C.3       1 <1>        -0.6739 
       2 S1         0.3146    1.0339    3.7837 S.o2      1 <1>         2.6162 
       3 O1         1.5534    1.2836    3.1145 O.2       1 <1>        -0.9566 
       4 O2        -0.0003   -0.3582    3.6978 O.2       1 <1>        -0.9591 
       5 N1         0.4572    1.4980    5.4650 N.pl3     1 <1>        -1.1210 
       6 C2         0.6643    2.9087    5.8225 C.3       1 <1>         0.1110 
       7 C3         2.1619    3.1907    5.9330 C.3       1 <1>        -0.1273 
       8 C4         2.7659    2.3096    7.0257 C.3       1 <1>        -0.1200 
       9 C5         4.2635    2.5917    7.1361 C.3       1 <1>        -0.1200 
      10 C6         4.8676    1.7105    8.2287 C.3       1 <1>        -0.1273 
      11 C7         6.3652    1.9926    8.3392 C.3       1 <1>         0.1110 
      12 N2         7.0177    1.6790    7.0599 N.pl3     1 <1>        -1.1210 
      13 S2         7.6916    0.0868    6.7892 S.o2      1 <1>         2.6161 
      14 O3         8.7142   -0.1677    7.7559 O.2       1 <1>        -0.9591 
      15 O4         6.6594   -0.8947    6.9164 O.2       1 <1>        -0.9566 
      16 C8         8.3994    0.0073    5.1253 C.3       1 <1>        -0.6739 
      17 H1        -1.0952    1.7021    1.9574 H         1 <1>         0.1263 
      18 H2        -1.9391    1.8207    3.5167 H         1 <1>         0.1286 
      19 H3        -0.7515    3.0584    3.0528 H         1 <1>         0.1300 
      20 H4         0.3973    0.7965    6.1891 H         1 <1>         0.4190 
      21 H5         0.2305    3.5445    5.0535 H         1 <1>         0.0640 
      22 H6         0.1843    3.1144    6.7770 H         1 <1>         0.0819 
      23 H7         2.6426    2.9712    4.9822 H         1 <1>         0.0741 
      24 H8         2.3154    4.2380    6.1846 H         1 <1>         0.0711 
      25 H9         2.2837    2.5296    7.9759 H         1 <1>         0.0667 
      26 H10        2.6108    1.2627    6.7733 H         1 <1>         0.0690 
      27 H11        4.7444    2.3720    6.1852 H         1 <1>         0.0690 
      28 H12        4.4171    3.6390    7.3877 H         1 <1>         0.0667 
      29 H13        4.3854    1.9305    9.1789 H         1 <1>         0.0711 
      30 H14        4.7125    0.6636    7.9764 H         1 <1>         0.0741 
      31 H15        6.5192    3.0428    8.5776 H         1 <1>         0.0819 
      32 H16        6.7928    1.3748    9.1261 H         1 <1>         0.0640 
      33 H17        7.0769    2.3826    6.3377 H         1 <1>         0.4190 
      34 H18        9.1931    0.7460    5.0338 H         1 <1>         0.1286 
      35 H19        8.8065   -0.9867    4.9522 H         1 <1>         0.1300 
      36 H20        7.6234    0.2150    4.3914 H         1 <1>         0.1263 
@<TRIPOS>BOND
       1        1        2 1        
       2        1       17 1        
       3        1       18 1        
       4        1       19 1        
       5        2        3 2        
       6        2        4 2        
       7        2        5 1        
       8        5        6 1        
       9        5       20 1        
      10        6        7 1        
      11        6       21 1        
      12        6       22 1        
      13        7        8 1        
      14        7       23 1        
      15        7       24 1        
      16        8        9 1        
      17        8       25 1        
      18        8       26 1        
      19        9       10 1        
      20        9       27 1        
      21        9       28 1        
      22       10       11 1        
      23       10       29 1        
      24       10       30 1        
      25       11       12 1        
      26       11       31 1        
      27       11       32 1        
      28       12       13 1        
      29       12       33 1        
      30       13       14 2        
      31       13       15 2        
      32       13       16 1        
      33       16       34 1        
      34       16       35 1        
      35       16       36 1        
@<TRIPOS>SUBSTRUCTURE
 1 **** 1 TEMP 0 **** **** 0 ROOT

