#        1GCZ_R01_S0001_C0000_L00026_S0001_C0021_G0010_E0001.mol2
#        Tue Jun  6 10:02:49 2017
#        Descriptor:     34    35    28     8     8     5
#        Energy - RMSD - RMSD MassCentre:     -40.9422    999.9999    999.9999
#        Receptor:       1  Surface Point:     1  Conformer:     0
#        Ligand:        26  Surface Point:     1  Conformer:    21
#        BUDE Formal Charge: 0
#        ATOM Count: 36
#        Heavy ATOM Count: 16
@<TRIPOS>MOLECULE
ZINC02096229_0_1GCZ_R01_S0001_C0000_L00026_S0001_C0021_G0010_E0001
 36 35 1 0 0
SMALL
USER_CHARGES
INVALID_CHARGES
@<TRIPOS>ATOM
       1 C1         0.0011   -0.0003   -3.0005 C.3       1 <1>        -0.6739 
       2 S1         0.6609   -0.1834   -1.3251 S.o2      1 <1>         2.6162 
       3 O1         2.0186   -0.6266   -1.3942 O.2       1 <1>        -0.9566 
       4 O2        -0.1174   -1.1446   -0.6076 O.2       1 <1>        -0.9591 
       5 N1         0.5928    1.3576   -0.4986 N.pl3     1 <1>        -1.1210 
       6 C2        -0.6854    2.0746   -0.3854 C.3       1 <1>         0.1110 
       7 C3        -1.3718    1.6865    0.9233 C.3       1 <1>        -0.1273 
       8 C4        -0.4796    2.0770    2.1007 C.3       1 <1>        -0.1200 
       9 C5        -1.1661    1.6888    3.4094 C.3       1 <1>        -0.1200 
      10 C6        -0.2738    2.0793    4.5869 C.3       1 <1>        -0.1273 
      11 C7        -0.9604    1.6913    5.8956 C.3       1 <1>         0.1110 
      12 N2        -1.1751    0.2373    5.9228 N.pl3     1 <1>        -1.1210 
      13 S2         0.0250   -0.8104    6.6469 S.o2      1 <1>         2.6161 
      14 O3         1.2640   -0.6699    5.9467 O.2       1 <1>        -0.9591 
      15 O4         0.2076   -0.4484    8.0181 O.2       1 <1>        -0.9566 
      16 C8        -0.5352   -2.5285    6.5449 C.3       1 <1>        -0.6739 
      17 H1         0.0324   -0.9617   -3.5088 H         1 <1>         0.1263 
      18 H2        -1.0277    0.3496   -2.9482 H         1 <1>         0.1286 
      19 H3         0.6027    0.7207   -3.5496 H         1 <1>         0.1300 
      20 H4         1.4318    1.7538   -0.0996 H         1 <1>         0.4190 
      21 H5        -0.5011    3.1469   -0.3951 H         1 <1>         0.0640 
      22 H6        -1.3252    1.8085   -1.2243 H         1 <1>         0.0819 
      23 H7        -2.3239    2.2069    1.0008 H         1 <1>         0.0741 
      24 H8        -1.5428    0.6121    0.9376 H         1 <1>         0.0711 
      25 H9         0.4726    1.5565    2.0216 H         1 <1>         0.0667 
      26 H10       -0.3087    3.1514    2.0847 H         1 <1>         0.0690 
      27 H11       -2.1183    2.2094    3.4870 H         1 <1>         0.0690 
      28 H12       -1.3371    0.6145    3.4238 H         1 <1>         0.0667 
      29 H13        0.6783    1.5588    4.5078 H         1 <1>         0.0711 
      30 H14       -0.1030    3.1537    4.5708 H         1 <1>         0.0741 
      31 H15       -0.3311    1.9813    6.7343 H         1 <1>         0.0819 
      32 H16       -1.9187    2.2014    5.9669 H         1 <1>         0.0640 
      33 H17       -2.0153   -0.1564    5.5236 H         1 <1>         0.4190 
      34 H18       -0.6618   -2.8067    5.5006 H         1 <1>         0.1286 
      35 H19        0.2048   -3.1786    7.0070 H         1 <1>         0.1300 
      36 H20       -1.4849   -2.6312    7.0659 H         1 <1>         0.1263 
@<TRIPOS>BOND
       1        1        2 1        
       2        1       17 1        
       3        1       18 1        
       4        1       19 1        
       5        2        3 2        
       6        2        4 2        
       7        2        5 1        
       8        5        6 1        
       9        5       20 1        
      10        6        7 1        
      11        6       21 1        
      12        6       22 1        
      13        7        8 1        
      14        7       23 1        
      15        7       24 1        
      16        8        9 1        
      17        8       25 1        
      18        8       26 1        
      19        9       10 1        
      20        9       27 1        
      21        9       28 1        
      22       10       11 1        
      23       10       29 1        
      24       10       30 1        
      25       11       12 1        
      26       11       31 1        
      27       11       32 1        
      28       12       13 1        
      29       12       33 1        
      30       13       14 2        
      31       13       15 2        
      32       13       16 1        
      33       16       34 1        
      34       16       35 1        
      35       16       36 1        
@<TRIPOS>SUBSTRUCTURE
 1 **** 1 TEMP 0 **** **** 0 ROOT

