#        1GCZ_R01_S0001_C0000_L00026_S0001_C0023_G0010_E0001.mol2
#        Tue Jun  6 10:02:49 2017
#        Descriptor:     36    32    29     7    10     9
#        Energy - RMSD - RMSD MassCentre:     -39.4503    999.9999    999.9999
#        Receptor:       1  Surface Point:     1  Conformer:     0
#        Ligand:        26  Surface Point:     1  Conformer:    23
#        BUDE Formal Charge: 0
#        ATOM Count: 36
#        Heavy ATOM Count: 16
@<TRIPOS>MOLECULE
ZINC02096229_0_1GCZ_R01_S0001_C0000_L00026_S0001_C0023_G0010_E0001
 36 35 1 0 0
SMALL
USER_CHARGES
INVALID_CHARGES
@<TRIPOS>ATOM
       1 C1        -0.9988    1.9999    0.9996 C.3       1 <1>        -0.6739 
       2 S1        -0.6021    0.9068    2.3865 S.o2      1 <1>         2.6162 
       3 O1         0.7764    0.5329    2.3183 O.2       1 <1>        -0.9566 
       4 O2        -1.4171   -0.2661    2.3183 O.2       1 <1>        -0.9591 
       5 N1        -0.9051    1.7419    3.8942 N.pl3     1 <1>        -1.1210 
       6 C2        -0.6728    1.0560    5.1733 C.3       1 <1>         0.1110 
       7 C3         0.7496    1.3419    5.6525 C.3       1 <1>        -0.1273 
       8 C4         0.9241    2.8458    5.8588 C.3       1 <1>        -0.1200 
       9 C5         2.3465    3.1316    6.3380 C.3       1 <1>        -0.1200 
      10 C6         2.5209    4.6356    6.5443 C.3       1 <1>        -0.1273 
      11 C7         3.9433    4.9214    7.0236 C.3       1 <1>         0.1110 
      12 N2         4.1757    4.2354    8.3027 N.pl3     1 <1>        -1.1210 
      13 S2         3.8727    5.0706    9.8104 S.o2      1 <1>         2.6161 
      14 O3         2.4754    5.3518    9.9261 O.2       1 <1>        -0.9591 
      15 O4         4.2859    4.2455   10.9028 O.2       1 <1>        -0.9566 
      16 C8         4.8055    6.6214    9.8378 C.3       1 <1>        -0.6739 
      17 H1        -0.8220    1.4752    0.0631 H         1 <1>         0.1263 
      18 H2        -2.0443    2.2950    1.0588 H         1 <1>         0.1286 
      19 H3        -0.3683    2.8853    1.0447 H         1 <1>         0.1300 
      20 H4        -1.2393    2.6950    3.8848 H         1 <1>         0.4190 
      21 H5        -1.3848    1.4174    5.9123 H         1 <1>         0.0640 
      22 H6        -0.8022   -0.0158    5.0380 H         1 <1>         0.0819 
      23 H7         0.9259    0.8234    6.5925 H         1 <1>         0.0741 
      24 H8         1.4601    0.9927    4.9062 H         1 <1>         0.0711 
      25 H9         0.7467    3.3632    4.9182 H         1 <1>         0.0667 
      26 H10        0.2124    3.1938    6.6046 H         1 <1>         0.0690 
      27 H11        2.5228    2.6133    7.2782 H         1 <1>         0.0690 
      28 H12        3.0570    2.7824    5.5918 H         1 <1>         0.0667 
      29 H13        2.3436    5.1530    5.6036 H         1 <1>         0.0711 
      30 H14        1.8094    4.9837    7.2901 H         1 <1>         0.0741 
      31 H15        4.6542    4.5603    6.2834 H         1 <1>         0.0819 
      32 H16        4.0716    5.9935    7.1577 H         1 <1>         0.0640 
      33 H17        4.5101    3.2824    8.3108 H         1 <1>         0.4190 
      34 H18        4.4813    7.2536    9.0137 H         1 <1>         0.1286 
      35 H19        4.6277    7.1343   10.7808 H         1 <1>         0.1300 
      36 H20        5.8673    6.4071    9.7356 H         1 <1>         0.1263 
@<TRIPOS>BOND
       1        1        2 1        
       2        1       17 1        
       3        1       18 1        
       4        1       19 1        
       5        2        3 2        
       6        2        4 2        
       7        2        5 1        
       8        5        6 1        
       9        5       20 1        
      10        6        7 1        
      11        6       21 1        
      12        6       22 1        
      13        7        8 1        
      14        7       23 1        
      15        7       24 1        
      16        8        9 1        
      17        8       25 1        
      18        8       26 1        
      19        9       10 1        
      20        9       27 1        
      21        9       28 1        
      22       10       11 1        
      23       10       29 1        
      24       10       30 1        
      25       11       12 1        
      26       11       31 1        
      27       11       32 1        
      28       12       13 1        
      29       12       33 1        
      30       13       14 2        
      31       13       15 2        
      32       13       16 1        
      33       16       34 1        
      34       16       35 1        
      35       16       36 1        
@<TRIPOS>SUBSTRUCTURE
 1 **** 1 TEMP 0 **** **** 0 ROOT

