#        1GCZ_R01_S0001_C0000_L00026_S0001_C0023_G0010_E0001.mol2
#        Tue Jun  6 14:22:25 2017
#        Descriptor:      1    34    28     8     9     9
#        Energy - RMSD - RMSD MassCentre:     -41.8923    999.9999    999.9999
#        Receptor:       1  Surface Point:     1  Conformer:     0
#        Ligand:        26  Surface Point:     1  Conformer:    23
#        BUDE Formal Charge: 0
#        ATOM Count: 36
#        Heavy ATOM Count: 16
@<TRIPOS>MOLECULE
ZINC02096229_0_1GCZ_R01_S0001_C0000_L00026_S0001_C0023_G0010_E0001
 36 35 1 0 0
SMALL
USER_CHARGES
INVALID_CHARGES
@<TRIPOS>ATOM
       1 C1         0.0012    0.9996    1.0000 C.3       1 <1>        -0.6739 
       2 S1        -0.2037    0.3451    2.6749 S.o2      1 <1>         2.6162 
       3 O1         0.9970   -0.3199    3.0760 O.2       1 <1>        -0.9566 
       4 O2        -1.2911   -0.5832    2.6953 O.2       1 <1>        -0.9591 
       5 N1        -0.5377    1.6605    3.7796 N.pl3     1 <1>        -1.1210 
       6 C2        -0.7599    1.3833    5.2060 C.3       1 <1>         0.1110 
       7 C3         0.5659    1.4918    5.9576 C.3       1 <1>        -0.1273 
       8 C4         1.1200    2.9081    5.8094 C.3       1 <1>        -0.1200 
       9 C5         2.4459    3.0165    6.5611 C.3       1 <1>        -0.1200 
      10 C6         3.0000    4.4328    6.4128 C.3       1 <1>        -0.1273 
      11 C7         4.3259    4.5413    7.1645 C.3       1 <1>         0.1110 
      12 N2         4.1036    4.2640    8.5908 N.pl3     1 <1>        -1.1210 
      13 S2         3.7696    5.5795    9.6955 S.o2      1 <1>         2.6161 
      14 O3         2.5157    6.1781    9.3574 O.2       1 <1>        -0.9591 
      15 O4         3.7131    5.0754   11.0325 O.2       1 <1>        -0.9566 
      16 C8         5.0835    6.8183    9.5717 C.3       1 <1>        -0.6739 
      17 H1         0.1962    0.1794    0.3123 H         1 <1>         0.1263 
      18 H2        -0.9076    1.5169    0.6998 H         1 <1>         0.1286 
      19 H3         0.8376    1.6949    0.9828 H         1 <1>         0.1300 
      20 H4        -0.5774    2.6097    3.4368 H         1 <1>         0.4190 
      21 H5        -1.4665    2.1057    5.6093 H         1 <1>         0.0640 
      22 H6        -1.1619    0.3789    5.3212 H         1 <1>         0.0819 
      23 H7         0.4037    1.2736    7.0109 H         1 <1>         0.0741 
      24 H8         1.2759    0.7788    5.5440 H         1 <1>         0.0711 
      25 H9         1.2811    3.1253    4.7554 H         1 <1>         0.0667 
      26 H10        0.4087    3.6202    6.2225 H         1 <1>         0.0690 
      27 H11        2.2837    2.7985    7.6145 H         1 <1>         0.0690 
      28 H12        3.1559    2.3034    6.1475 H         1 <1>         0.0667 
      29 H13        3.1611    4.6500    5.3588 H         1 <1>         0.0711 
      30 H14        2.2888    5.1450    6.8258 H         1 <1>         0.0741 
      31 H15        5.0317    3.8191    6.7598 H         1 <1>         0.0819 
      32 H16        4.7270    5.5459    7.0478 H         1 <1>         0.0640 
      33 H17        4.1438    3.3145    8.9326 H         1 <1>         0.4190 
      34 H18        5.1172    7.2101    8.5572 H         1 <1>         0.1286 
      35 H19        4.8828    7.6297   10.2682 H         1 <1>         0.1300 
      36 H20        6.0389    6.3583    9.8155 H         1 <1>         0.1263 
@<TRIPOS>BOND
       1        1        2 1        
       2        1       17 1        
       3        1       18 1        
       4        1       19 1        
       5        2        3 2        
       6        2        4 2        
       7        2        5 1        
       8        5        6 1        
       9        5       20 1        
      10        6        7 1        
      11        6       21 1        
      12        6       22 1        
      13        7        8 1        
      14        7       23 1        
      15        7       24 1        
      16        8        9 1        
      17        8       25 1        
      18        8       26 1        
      19        9       10 1        
      20        9       27 1        
      21        9       28 1        
      22       10       11 1        
      23       10       29 1        
      24       10       30 1        
      25       11       12 1        
      26       11       31 1        
      27       11       32 1        
      28       12       13 1        
      29       12       33 1        
      30       13       14 2        
      31       13       15 2        
      32       13       16 1        
      33       16       34 1        
      34       16       35 1        
      35       16       36 1        
@<TRIPOS>SUBSTRUCTURE
 1 **** 1 TEMP 0 **** **** 0 ROOT

