#        1GCZ_R01_S0001_C0000_L00003_S0001_C0046_G0010_E0001.mol2
#        Tue Jun  6 09:55:15 2017
#        Descriptor:      7     7    22    15     6    14
#        Energy - RMSD - RMSD MassCentre:     -58.7907    999.9999    999.9999
#        Receptor:       1  Surface Point:     1  Conformer:     0
#        Ligand:         3  Surface Point:     1  Conformer:    46
#        BUDE Formal Charge: 0
#        ATOM Count: 58
#        Heavy ATOM Count: 30
@<TRIPOS>MOLECULE
ZINC61580633_1GCZ_R01_S0001_C0000_L00003_S0001_C0046_G0010_E0001
 58 59 0 0 0
SMALL
USER_CHARGES
@<TRIPOS>ATOM
       1 C1        13.5764   -1.7791    3.8995 C.3       1 <0>        -0.1532 
       2 C2        12.6494   -2.7612    3.1889 C.3       1 <0>        -0.1224 
       3 C3        11.4391   -2.0094    2.6368 C.3       1 <0>        -0.1198 
       4 C4        10.6777   -1.3556    3.7890 C.3       1 <0>         0.0610 
       5 O1         9.5450   -0.6521    3.2723 O.3       1 <0>        -0.3878 
       6 C5         8.7913   -0.0175    4.3088 C.3       1 <0>         0.0487 
       7 C6         9.6757    0.9969    5.0323 C.3       1 <0>         0.1244 
       8 N1         8.9010    1.6491    6.0977 N.am      1 <0>        -0.7216 
       9 C7         8.5810    0.9717    7.1966 C.2       1 <0>         0.5161 
      10 O2         8.9328   -0.2000    7.3220 O.2       1 <0>        -0.5151 
      11 C8         7.7851    1.6418    8.2911 C.3       1 <0>         0.0490 
      12 O3         6.4474    1.8656    7.8379 O.3       1 <0>        -0.3194 
      13 C9         5.6927    0.7879    7.5353 C.2       1 <0>         0.5417 
      14 O4         6.1563   -0.3346    7.6517 O.2       1 <0>        -0.5337 
      15 C10        4.3022    0.9682    7.0622 C.2       1 <0>        -0.2559 
      16 C11        3.6380    2.2806    6.8983 C.2       1 <0>        -0.0791 
      17 C12        2.3789    2.1637    6.4705 C.2       1 <0>        -0.2585 
      18 S1         1.8947    0.4791    6.2258 S.3       1 <0>         0.3028 
      19 C13        3.4996   -0.0569    6.7451 C.2       1 <0>         0.0893 
      20 N2         3.9107   -1.3606    6.8364 N.am      1 <0>        -0.6099 
      21 C14        3.0784   -2.3456    6.5108 C.2       1 <0>         0.5551 
      22 O5         1.9389   -2.0860    6.1273 O.2       1 <0>        -0.4939 
      23 C15        3.5241   -3.7534    6.6099 C.ar      1 <0>        -0.1466 
      24 C16        2.6146   -4.7587    6.2601 C.ar      1 <0>        -0.0772 
      25 C17        2.9526   -6.1096    6.4030 C.ar      1 <0>        -0.1241 
      26 C18        4.2040   -6.4807    6.9085 C.ar      1 <0>        -0.0446 
      27 C19        5.1346   -5.4788    7.2089 C.ar      1 <0>        -0.1261 
      28 C20        4.8031   -4.1295    7.0370 C.ar      1 <0>        -0.0460 
      29 C21        4.5263   -7.9417    7.1134 C.3       1 <0>        -0.0928 
      30 C22        4.1210   -8.3580    8.5244 C.3       1 <0>        -0.1485 
      31 H1        13.0444   -1.3124    4.7260 H         1 <0>         0.0567 
      32 H2        13.8996   -1.0136    3.1972 H         1 <0>         0.0554 
      33 H3        14.4446   -2.3120    4.2809 H         1 <0>         0.0557 
      34 H4        13.1842   -3.2377    2.3698 H         1 <0>         0.0632 
      35 H5        12.3141   -3.5192    3.8937 H         1 <0>         0.0635 
      36 H6        11.7740   -1.2417    1.9425 H         1 <0>         0.0711 
      37 H7        10.7836   -2.7065    2.1191 H         1 <0>         0.0704 
      38 H8        10.3415   -2.1225    4.4838 H         1 <0>         0.0498 
      39 H9        11.3320   -0.6575    4.3070 H         1 <0>         0.0505 
      40 H10        8.4456   -0.7670    5.0177 H         1 <0>         0.0584 
      41 H11        7.9349    0.4939    3.8742 H         1 <0>         0.0702 
      42 H12       10.0213    1.7475    4.3246 H         1 <0>         0.0872 
      43 H13       10.5320    0.4866    5.4680 H         1 <0>         0.0805 
      44 H14        8.6115    2.6114    5.9958 H         1 <0>         0.4058 
      45 H15        7.7669    1.0021    9.1709 H         1 <0>         0.1008 
      46 H16        8.2457    2.5944    8.5440 H         1 <0>         0.0999 
      47 H17        4.1394    3.2164    7.0969 H         1 <0>         0.1557 
      48 H18        1.7421    3.0161    6.2856 H         1 <0>         0.1929 
      49 H19        4.8463   -1.5739    7.1512 H         1 <0>         0.4317 
      50 H20        1.6396   -4.4916    5.8801 H         1 <0>         0.1287 
      51 H21        2.2450   -6.8764    6.1240 H         1 <0>         0.1326 
      52 H22        6.1121   -5.7616    7.5708 H         1 <0>         0.1342 
      53 H23        5.5804   -3.4046    7.2283 H         1 <0>         0.1410 
      54 H24        5.5948   -8.0986    6.9810 H         1 <0>         0.0777 
      55 H25        3.9788   -8.5385    6.3870 H         1 <0>         0.0771 
      56 H26        3.0504   -8.2123    8.6513 H         1 <0>         0.0623 
      57 H27        4.6588   -7.7507    9.2496 H         1 <0>         0.0572 
      58 H28        4.3655   -9.4072    8.6764 H         1 <0>         0.0578 
@<TRIPOS>BOND
       1        1        2 1        
       2        1       31 1        
       3        1       32 1        
       4        1       33 1        
       5        2        3 1        
       6        2       34 1        
       7        2       35 1        
       8        3        4 1        
       9        3       36 1        
      10        3       37 1        
      11        4        5 1        
      12        4       38 1        
      13        4       39 1        
      14        5        6 1        
      15        6        7 1        
      16        6       40 1        
      17        6       41 1        
      18        7        8 1        
      19        7       42 1        
      20        7       43 1        
      21        8        9 am       
      22        8       44 1        
      23        9       10 2        
      24        9       11 1        
      25       11       12 1        
      26       11       45 1        
      27       11       46 1        
      28       12       13 1        
      29       13       14 2        
      30       13       15 1        
      31       15       19 2        
      32       15       16 1        
      33       16       17 2        
      34       16       47 1        
      35       17       18 1        
      36       17       48 1        
      37       18       19 1        
      38       19       20 1        
      39       20       21 am       
      40       20       49 1        
      41       21       22 2        
      42       21       23 1        
      43       23       28 ar       
      44       23       24 ar       
      45       24       25 ar       
      46       24       50 1        
      47       25       26 ar       
      48       25       51 1        
      49       26       27 ar       
      50       26       29 1        
      51       27       28 ar       
      52       27       52 1        
      53       28       53 1        
      54       29       30 1        
      55       29       54 1        
      56       29       55 1        
      57       30       56 1        
      58       30       57 1        
      59       30       58 1        

