#        1GCZ_R01_S0001_C0000_L00026_S0001_C0024_G0010_E0001.mol2
#        Tue Jun  6 10:02:50 2017
#        Descriptor:     12    19     7     6     9     9
#        Energy - RMSD - RMSD MassCentre:     -38.1524    999.9999    999.9999
#        Receptor:       1  Surface Point:     1  Conformer:     0
#        Ligand:        26  Surface Point:     1  Conformer:    24
#        BUDE Formal Charge: 0
#        ATOM Count: 36
#        Heavy ATOM Count: 16
@<TRIPOS>MOLECULE
ZINC02096229_0_1GCZ_R01_S0001_C0000_L00026_S0001_C0024_G0010_E0001
 36 35 1 0 0
SMALL
USER_CHARGES
INVALID_CHARGES
@<TRIPOS>ATOM
       1 C1        -1.9996    0.9994    0.9990 C.3       1 <1>        -0.6739 
       2 S1        -0.5809    0.3162    1.8912 S.o2      1 <1>         2.6162 
       3 O1         0.1745   -0.5223    1.0132 O.2       1 <1>        -0.9566 
       4 O2        -1.0423   -0.4536    3.0043 O.2       1 <1>        -0.9591 
       5 N1         0.4331    1.6223    2.4644 N.pl3     1 <1>        -1.1210 
       6 C2         1.6480    1.3244    3.2365 C.3       1 <1>         0.1110 
       7 C3         1.3171    1.3327    4.7281 C.3       1 <1>        -0.1273 
       8 C4         0.8037    2.7154    5.1274 C.3       1 <1>        -0.1200 
       9 C5         0.4729    2.7236    6.6191 C.3       1 <1>        -0.1200 
      10 C6        -0.0405    4.1063    7.0184 C.3       1 <1>        -0.1273 
      11 C7        -0.3714    4.1145    8.5102 C.3       1 <1>         0.1110 
      12 N2         0.8436    3.8166    9.2822 N.pl3     1 <1>        -1.1210 
      13 S2         1.8575    5.1226    9.8555 S.o2      1 <1>         2.6161 
      14 O3         2.9105    4.5886   10.6621 O.2       1 <1>        -0.9591 
      15 O4         2.4173    5.8163    8.7372 O.2       1 <1>        -0.9566 
      16 C8         0.8628    6.2690   10.8416 C.3       1 <1>        -0.6739 
      17 H1        -2.6357    0.1869    0.6541 H         1 <1>         0.1263 
      18 H2        -2.5669    1.6479    1.6632 H         1 <1>         0.1286 
      19 H3        -1.6477    1.5732    0.1443 H         1 <1>         0.1300 
      20 H4         0.1833    2.5802    2.2644 H         1 <1>         0.4190 
      21 H5         2.0256    0.3441    2.9533 H         1 <1>         0.0640 
      22 H6         2.4036    2.0788    3.0277 H         1 <1>         0.0819 
      23 H7         0.5513    0.5877    4.9332 H         1 <1>         0.0741 
      24 H8         2.2133    1.0991    5.2990 H         1 <1>         0.0711 
      25 H9         1.5702    3.4595    4.9212 H         1 <1>         0.0667 
      26 H10       -0.0919    2.9480    4.5553 H         1 <1>         0.0690 
      27 H11       -0.2930    1.9786    6.8242 H         1 <1>         0.0690 
      28 H12        1.3691    2.4899    7.1901 H         1 <1>         0.0667 
      29 H13        0.7260    4.8505    6.8122 H         1 <1>         0.0711 
      30 H14       -0.9361    4.3391    6.4462 H         1 <1>         0.0741 
      31 H15       -0.7494    5.0951    8.7917 H         1 <1>         0.0819 
      32 H16       -1.1276    3.3603    8.7175 H         1 <1>         0.0640 
      33 H17        1.0926    2.8582    9.4815 H         1 <1>         0.4190 
      34 H18        0.4477    5.7431   11.6988 H         1 <1>         0.1286 
      35 H19        1.4903    7.0880   11.1867 H         1 <1>         0.1300 
      36 H20        0.0536    6.6639   10.2307 H         1 <1>         0.1263 
@<TRIPOS>BOND
       1        1        2 1        
       2        1       17 1        
       3        1       18 1        
       4        1       19 1        
       5        2        3 2        
       6        2        4 2        
       7        2        5 1        
       8        5        6 1        
       9        5       20 1        
      10        6        7 1        
      11        6       21 1        
      12        6       22 1        
      13        7        8 1        
      14        7       23 1        
      15        7       24 1        
      16        8        9 1        
      17        8       25 1        
      18        8       26 1        
      19        9       10 1        
      20        9       27 1        
      21        9       28 1        
      22       10       11 1        
      23       10       29 1        
      24       10       30 1        
      25       11       12 1        
      26       11       31 1        
      27       11       32 1        
      28       12       13 1        
      29       12       33 1        
      30       13       14 2        
      31       13       15 2        
      32       13       16 1        
      33       16       34 1        
      34       16       35 1        
      35       16       36 1        
@<TRIPOS>SUBSTRUCTURE
 1 **** 1 TEMP 0 **** **** 0 ROOT

