#        1GCZ_R01_S0001_C0000_L00026_S0001_C0024_G0010_E0001.mol2
#        Tue Jun  6 14:22:27 2017
#        Descriptor:     13    20     7     6     9     8
#        Energy - RMSD - RMSD MassCentre:     -34.6738    999.9999    999.9999
#        Receptor:       1  Surface Point:     1  Conformer:     0
#        Ligand:        26  Surface Point:     1  Conformer:    24
#        BUDE Formal Charge: 0
#        ATOM Count: 36
#        Heavy ATOM Count: 16
@<TRIPOS>MOLECULE
ZINC02096229_0_1GCZ_R01_S0001_C0000_L00026_S0001_C0024_G0010_E0001
 36 35 1 0 0
SMALL
USER_CHARGES
INVALID_CHARGES
@<TRIPOS>ATOM
       1 C1        -1.9994    0.9995   -0.0010 C.3       1 <1>        -0.6739 
       2 S1        -0.8332    0.1519    1.0932 S.o2      1 <1>         2.6162 
       3 O1         0.0672   -0.6360    0.3102 O.2       1 <1>        -0.9566 
       4 O2        -1.5520   -0.6981    1.9907 O.2       1 <1>        -0.9591 
       5 N1         0.0740    1.3350    2.0095 N.pl3     1 <1>        -1.1210 
       6 C2         1.0804    0.8936    2.9857 C.3       1 <1>         0.1110 
       7 C3         0.4323    0.7715    4.3640 C.3       1 <1>        -0.1273 
       8 C4        -0.1096    2.1341    4.7937 C.3       1 <1>        -0.1200 
       9 C5        -0.7577    2.0119    6.1720 C.3       1 <1>        -0.1200 
      10 C6        -1.2996    3.3745    6.6016 C.3       1 <1>        -0.1273 
      11 C7        -1.9477    3.2523    7.9799 C.3       1 <1>         0.1110 
      12 N2        -0.9412    2.8108    8.9563 N.pl3     1 <1>        -1.1210 
      13 S2        -0.0340    3.9940    9.8725 S.o2      1 <1>         2.6161 
      14 O3         0.7991    3.3236   10.8219 O.2       1 <1>        -0.9591 
      15 O4         0.7792    4.7633    8.9826 O.2       1 <1>        -0.9566 
      16 C8        -1.1813    5.0903   10.7431 C.3       1 <1>        -0.6739 
      17 H1        -2.5715    0.2626   -0.5608 H         1 <1>         0.1263 
      18 H2        -2.6761    1.6093    0.5938 H         1 <1>         0.1286 
      19 H3        -1.4505    1.6350   -0.6925 H         1 <1>         0.1300 
      20 H4        -0.0941    2.3207    1.8670 H         1 <1>         0.4190 
      21 H5         1.4779   -0.0732    2.6840 H         1 <1>         0.0640 
      22 H6         1.8881    1.6214    3.0273 H         1 <1>         0.0819 
      23 H7        -0.3842    0.0540    4.3178 H         1 <1>         0.0741 
      24 H8         1.1740    0.4320    5.0840 H         1 <1>         0.0711 
      25 H9         0.7077    2.8508    4.8387 H         1 <1>         0.0667 
      26 H10       -0.8505    2.4728    4.0725 H         1 <1>         0.0690 
      27 H11       -1.5742    1.2944    6.1257 H         1 <1>         0.0690 
      28 H12       -0.0160    1.6723    6.8920 H         1 <1>         0.0667 
      29 H13       -0.4822    4.0913    6.6468 H         1 <1>         0.0711 
      30 H14       -2.0404    3.7132    5.8804 H         1 <1>         0.0741 
      31 H15       -2.3452    4.2195    8.2801 H         1 <1>         0.0819 
      32 H16       -2.7556    2.5248    7.9370 H         1 <1>         0.0640 
      33 H17       -0.7738    1.8249    9.0978 H         1 <1>         0.4190 
      34 H18       -1.7908    4.5055   11.4289 H         1 <1>         0.1286 
      35 H19       -0.6174    5.8341   11.3020 H         1 <1>         0.1300 
      36 H20       -1.8240    5.5891   10.0206 H         1 <1>         0.1263 
@<TRIPOS>BOND
       1        1        2 1        
       2        1       17 1        
       3        1       18 1        
       4        1       19 1        
       5        2        3 2        
       6        2        4 2        
       7        2        5 1        
       8        5        6 1        
       9        5       20 1        
      10        6        7 1        
      11        6       21 1        
      12        6       22 1        
      13        7        8 1        
      14        7       23 1        
      15        7       24 1        
      16        8        9 1        
      17        8       25 1        
      18        8       26 1        
      19        9       10 1        
      20        9       27 1        
      21        9       28 1        
      22       10       11 1        
      23       10       29 1        
      24       10       30 1        
      25       11       12 1        
      26       11       31 1        
      27       11       32 1        
      28       12       13 1        
      29       12       33 1        
      30       13       14 2        
      31       13       15 2        
      32       13       16 1        
      33       16       34 1        
      34       16       35 1        
      35       16       36 1        
@<TRIPOS>SUBSTRUCTURE
 1 **** 1 TEMP 0 **** **** 0 ROOT

