#        1GCZ_R01_S0001_C0000_L00026_S0001_C0025_G0010_E0001.mol2
#        Tue Jun  6 14:22:28 2017
#        Descriptor:     32    33    30     6     8    12
#        Energy - RMSD - RMSD MassCentre:     -34.5302    999.9999    999.9999
#        Receptor:       1  Surface Point:     1  Conformer:     0
#        Ligand:        26  Surface Point:     1  Conformer:    25
#        BUDE Formal Charge: 0
#        ATOM Count: 36
#        Heavy ATOM Count: 16
@<TRIPOS>MOLECULE
ZINC02096229_0_1GCZ_R01_S0001_C0000_L00026_S0001_C0025_G0010_E0001
 36 35 1 0 0
SMALL
USER_CHARGES
INVALID_CHARGES
@<TRIPOS>ATOM
       1 C1        -1.9992    0.0003    3.9991 C.3       1 <1>        -0.6739 
       2 S1        -0.6459   -0.0187    5.2007 S.o2      1 <1>         2.6162 
       3 O1         0.5896    0.2430    4.5300 O.2       1 <1>        -0.9566 
       4 O2        -0.5835   -1.3013    5.8296 O.2       1 <1>        -0.9591 
       5 N1        -0.9229    1.2132    6.4124 N.pl3     1 <1>        -1.1210 
       6 C2        -1.1407    2.6086    6.0047 C.3       1 <1>         0.1110 
       7 C3         0.1954    3.3497    5.9944 C.3       1 <1>        -0.1273 
       8 C4         0.7971    3.3327    7.3989 C.3       1 <1>        -0.1200 
       9 C5         2.1333    4.0739    7.3885 C.3       1 <1>        -0.1200 
      10 C6         2.7351    4.0569    8.7930 C.3       1 <1>        -0.1273 
      11 C7         4.0712    4.7980    8.7826 C.3       1 <1>         0.1110 
      12 N2         4.6501    4.7817   10.1336 N.pl3     1 <1>        -1.1210 
      13 S2         4.3254    6.0981   11.2400 S.o2      1 <1>         2.6161 
      14 O3         2.9326    6.1152   11.5636 O.2       1 <1>        -0.9591 
      15 O4         5.0909    5.9159   12.4340 O.2       1 <1>        -0.9566 
      16 C8         4.7842    7.6663   10.4614 C.3       1 <1>        -0.6739 
      17 H1        -1.8321   -0.7743    3.2536 H         1 <1>         0.1263 
      18 H2        -2.9408   -0.1857    4.5114 H         1 <1>         0.1286 
      19 H3        -2.0366    0.9719    3.5114 H         1 <1>         0.1300 
      20 H4        -0.9330    0.9650    7.3914 H         1 <1>         0.4190 
      21 H5        -1.5763    2.6307    5.0080 H         1 <1>         0.0640 
      22 H6        -1.8177    3.0896    6.7077 H         1 <1>         0.0819 
      23 H7         0.8759    2.8593    5.3017 H         1 <1>         0.0741 
      24 H8         0.0361    4.3790    5.6798 H         1 <1>         0.0711 
      25 H9         0.1153    3.8227    8.0908 H         1 <1>         0.0667 
      26 H10        0.9551    2.3030    7.7126 H         1 <1>         0.0690 
      27 H11        2.8140    3.5834    6.6958 H         1 <1>         0.0690 
      28 H12        1.9740    5.1031    7.0739 H         1 <1>         0.0667 
      29 H13        2.0532    4.5468    9.4849 H         1 <1>         0.0711 
      30 H14        2.8931    3.0271    9.1067 H         1 <1>         0.0741 
      31 H15        4.7518    4.3077    8.0898 H         1 <1>         0.0819 
      32 H16        3.9119    5.8273    8.4680 H         1 <1>         0.0640 
      33 H17        5.2350    4.0107   10.4228 H         1 <1>         0.4190 
      34 H18        4.1922    7.8096    9.5598 H         1 <1>         0.1286 
      35 H19        4.5947    8.4835   11.1541 H         1 <1>         0.1300 
      36 H20        5.8409    7.6467   10.2028 H         1 <1>         0.1263 
@<TRIPOS>BOND
       1        1        2 1        
       2        1       17 1        
       3        1       18 1        
       4        1       19 1        
       5        2        3 2        
       6        2        4 2        
       7        2        5 1        
       8        5        6 1        
       9        5       20 1        
      10        6        7 1        
      11        6       21 1        
      12        6       22 1        
      13        7        8 1        
      14        7       23 1        
      15        7       24 1        
      16        8        9 1        
      17        8       25 1        
      18        8       26 1        
      19        9       10 1        
      20        9       27 1        
      21        9       28 1        
      22       10       11 1        
      23       10       29 1        
      24       10       30 1        
      25       11       12 1        
      26       11       31 1        
      27       11       32 1        
      28       12       13 1        
      29       12       33 1        
      30       13       14 2        
      31       13       15 2        
      32       13       16 1        
      33       16       34 1        
      34       16       35 1        
      35       16       36 1        
@<TRIPOS>SUBSTRUCTURE
 1 **** 1 TEMP 0 **** **** 0 ROOT

