#        1GCZ_R01_S0001_C0000_L00026_S0001_C0026_G0010_E0001.mol2
#        Tue Jun  6 14:22:29 2017
#        Descriptor:     34    34    27     8     8     4
#        Energy - RMSD - RMSD MassCentre:     -47.0058    999.9999    999.9999
#        Receptor:       1  Surface Point:     1  Conformer:     0
#        Ligand:        26  Surface Point:     1  Conformer:    26
#        BUDE Formal Charge: 0
#        ATOM Count: 36
#        Heavy ATOM Count: 16
@<TRIPOS>MOLECULE
ZINC02096229_0_1GCZ_R01_S0001_C0000_L00026_S0001_C0026_G0010_E0001
 36 35 1 0 0
SMALL
USER_CHARGES
INVALID_CHARGES
@<TRIPOS>ATOM
       1 C1         0.0010   -0.0004   -4.0006 C.3       1 <1>        -0.6739 
       2 S1         0.6190   -0.5817   -2.4018 S.o2      1 <1>         2.6162 
       3 O1         1.8792   -1.2318   -2.5867 O.2       1 <1>        -0.9566 
       4 O2        -0.3144   -1.5055   -1.8362 O.2       1 <1>        -0.9591 
       5 N1         0.8196    0.7810   -1.3223 N.pl3     1 <1>        -1.1210 
       6 C2        -0.3147    1.6753   -1.0497 C.3       1 <1>         0.1110 
       7 C3        -1.0581    1.1890    0.1935 C.3       1 <1>        -0.1273 
       8 C4        -0.1116    1.2107    1.3928 C.3       1 <1>        -0.1200 
       9 C5        -0.8551    0.7243    2.6360 C.3       1 <1>        -0.1200 
      10 C6         0.0914    0.7460    3.8355 C.3       1 <1>        -0.1273 
      11 C7        -0.6521    0.2598    5.0786 C.3       1 <1>         0.1110 
      12 N2         0.2584    0.2806    6.2325 N.pl3     1 <1>        -1.1210 
      13 S2         1.1761   -1.1503    6.6482 S.o2      1 <1>         2.6161 
      14 O3         2.1048   -1.4409    5.6004 O.2       1 <1>        -0.9591 
      15 O4         1.8876   -0.9217    7.8673 O.2       1 <1>        -0.9566 
      16 C8         0.0472   -2.5491    6.8604 C.3       1 <1>        -0.6739 
      17 H1        -0.1351   -0.8499   -4.6665 H         1 <1>         0.1263 
      18 H2        -0.9514    0.5058   -3.8582 H         1 <1>         0.1286 
      19 H3         0.7187    0.6914   -4.4362 H         1 <1>         0.1300 
      20 H4         1.7146    0.9524   -0.8869 H         1 <1>         0.4190 
      21 H5         0.0529    2.6853   -0.8815 H         1 <1>         0.0640 
      22 H6        -0.9910    1.6722   -1.9020 H         1 <1>         0.0819 
      23 H7        -1.9054    1.8430    0.3875 H         1 <1>         0.0741 
      24 H8        -1.4130    0.1737    0.0290 H         1 <1>         0.0711 
      25 H9         0.7357    0.5567    1.1973 H         1 <1>         0.0667 
      26 H10        0.2432    2.2262    1.5557 H         1 <1>         0.0690 
      27 H11       -1.7025    1.3786    2.8301 H         1 <1>         0.0690 
      28 H12       -1.2101   -0.2909    2.4716 H         1 <1>         0.0667 
      29 H13        0.9386    0.0921    3.6399 H         1 <1>         0.0711 
      30 H14        0.4462    1.7616    3.9983 H         1 <1>         0.0741 
      31 H15       -1.4995    0.9139    5.2727 H         1 <1>         0.0819 
      32 H16       -1.0070   -0.7555    4.9143 H         1 <1>         0.0640 
      33 H17        0.3539    1.1208    6.7848 H         1 <1>         0.4190 
      34 H18       -0.4844   -2.7300    5.9285 H         1 <1>         0.1286 
      35 H19        0.6165   -3.4357    7.1318 H         1 <1>         0.1300 
      36 H20       -0.6677   -2.3211    7.6483 H         1 <1>         0.1263 
@<TRIPOS>BOND
       1        1        2 1        
       2        1       17 1        
       3        1       18 1        
       4        1       19 1        
       5        2        3 2        
       6        2        4 2        
       7        2        5 1        
       8        5        6 1        
       9        5       20 1        
      10        6        7 1        
      11        6       21 1        
      12        6       22 1        
      13        7        8 1        
      14        7       23 1        
      15        7       24 1        
      16        8        9 1        
      17        8       25 1        
      18        8       26 1        
      19        9       10 1        
      20        9       27 1        
      21        9       28 1        
      22       10       11 1        
      23       10       29 1        
      24       10       30 1        
      25       11       12 1        
      26       11       31 1        
      27       11       32 1        
      28       12       13 1        
      29       12       33 1        
      30       13       14 2        
      31       13       15 2        
      32       13       16 1        
      33       16       34 1        
      34       16       35 1        
      35       16       36 1        
@<TRIPOS>SUBSTRUCTURE
 1 **** 1 TEMP 0 **** **** 0 ROOT

