#        1GCZ_R01_S0001_C0000_L00026_S0001_C0027_G0010_E0001.mol2
#        Tue Jun  6 10:02:52 2017
#        Descriptor:     24    22     8     9     9     7
#        Energy - RMSD - RMSD MassCentre:     -37.5855    999.9999    999.9999
#        Receptor:       1  Surface Point:     1  Conformer:     0
#        Ligand:        26  Surface Point:     1  Conformer:    27
#        BUDE Formal Charge: 0
#        ATOM Count: 36
#        Heavy ATOM Count: 16
@<TRIPOS>MOLECULE
ZINC02096229_0_1GCZ_R01_S0001_C0000_L00026_S0001_C0027_G0010_E0001
 36 35 1 0 0
SMALL
USER_CHARGES
INVALID_CHARGES
@<TRIPOS>ATOM
       1 C1         1.0004    0.9988   -0.9997 C.3       1 <1>        -0.6739 
       2 S1        -0.6446    0.6993   -0.3068 S.o2      1 <1>         2.6162 
       3 O1        -0.7054   -0.6298    0.2171 O.2       1 <1>        -0.9566 
       4 O2        -1.6297    0.8522   -1.3319 O.2       1 <1>        -0.9591 
       5 N1        -0.9554    1.8463    0.9779 N.pl3     1 <1>        -1.1210 
       6 C2        -0.0122    1.9669    2.0988 C.3       1 <1>         0.1110 
       7 C3        -0.4489    1.0408    3.2328 C.3       1 <1>        -0.1273 
       8 C4         0.5316    1.1662    4.3980 C.3       1 <1>        -0.1200 
       9 C5         0.0947    0.2401    5.5321 C.3       1 <1>        -0.1200 
      10 C6         1.0752    0.3655    6.6973 C.3       1 <1>        -0.1273 
      11 C7         0.6384   -0.5606    7.8313 C.3       1 <1>         0.1110 
      12 N2         0.6403   -1.9514    7.3552 N.pl3     1 <1>        -1.1210 
      13 S2         2.0667   -2.9442    7.5614 S.o2      1 <1>         2.6161 
      14 O3         1.7884   -4.2748    7.1176 O.2       1 <1>        -0.9591 
      15 O4         3.1413   -2.3989    6.7917 O.2       1 <1>        -0.9566 
      16 C8         2.5311   -2.9753    9.3105 C.3       1 <1>        -0.6739 
      17 H1         1.1872    0.2933   -1.8065 H         1 <1>         0.1263 
      18 H2         1.0508    2.0145   -1.3863 H         1 <1>         0.1286 
      19 H3         1.7499    0.8684   -0.2221 H         1 <1>         0.1300 
      20 H4        -1.7826    2.4249    0.9487 H         1 <1>         0.4190 
      21 H5         0.9848    1.6873    1.7647 H         1 <1>         0.0640 
      22 H6        -0.0011    2.9955    2.4535 H         1 <1>         0.0819 
      23 H7        -1.4461    1.3211    3.5654 H         1 <1>         0.0741 
      24 H8        -0.4603    0.0128    2.8766 H         1 <1>         0.0711 
      25 H9         1.5286    0.8864    4.0640 H         1 <1>         0.0667 
      26 H10        0.5427    2.1948    4.7527 H         1 <1>         0.0690 
      27 H11       -0.9025    0.5204    5.8647 H         1 <1>         0.0690 
      28 H12        0.0833   -0.7879    5.1759 H         1 <1>         0.0667 
      29 H13        2.0722    0.0856    6.3632 H         1 <1>         0.0711 
      30 H14        1.0863    1.3940    7.0519 H         1 <1>         0.0741 
      31 H15        1.3290   -0.4615    8.6661 H         1 <1>         0.0819 
      32 H16       -0.3641   -0.2889    8.1548 H         1 <1>         0.0640 
      33 H17       -0.1815   -2.3334    6.9093 H         1 <1>         0.4190 
      34 H18        1.7175   -3.4020    9.8936 H         1 <1>         0.1286 
      35 H19        3.4255   -3.5818    9.4368 H         1 <1>         0.1300 
      36 H20        2.7288   -1.9609    9.6507 H         1 <1>         0.1263 
@<TRIPOS>BOND
       1        1        2 1        
       2        1       17 1        
       3        1       18 1        
       4        1       19 1        
       5        2        3 2        
       6        2        4 2        
       7        2        5 1        
       8        5        6 1        
       9        5       20 1        
      10        6        7 1        
      11        6       21 1        
      12        6       22 1        
      13        7        8 1        
      14        7       23 1        
      15        7       24 1        
      16        8        9 1        
      17        8       25 1        
      18        8       26 1        
      19        9       10 1        
      20        9       27 1        
      21        9       28 1        
      22       10       11 1        
      23       10       29 1        
      24       10       30 1        
      25       11       12 1        
      26       11       31 1        
      27       11       32 1        
      28       12       13 1        
      29       12       33 1        
      30       13       14 2        
      31       13       15 2        
      32       13       16 1        
      33       16       34 1        
      34       16       35 1        
      35       16       36 1        
@<TRIPOS>SUBSTRUCTURE
 1 **** 1 TEMP 0 **** **** 0 ROOT

