#        1GCZ_R01_S0001_C0000_L00026_S0001_C0027_G0010_E0001.mol2
#        Tue Jun  6 14:22:31 2017
#        Descriptor:     32    31    24     9    10    12
#        Energy - RMSD - RMSD MassCentre:     -35.5704    999.9999    999.9999
#        Receptor:       1  Surface Point:     1  Conformer:     0
#        Ligand:        26  Surface Point:     1  Conformer:    27
#        BUDE Formal Charge: 0
#        ATOM Count: 36
#        Heavy ATOM Count: 16
@<TRIPOS>MOLECULE
ZINC02096229_0_1GCZ_R01_S0001_C0000_L00026_S0001_C0027_G0010_E0001
 36 35 1 0 0
SMALL
USER_CHARGES
INVALID_CHARGES
@<TRIPOS>ATOM
       1 C1         1.0008    1.9997    3.9991 C.3       1 <1>        -0.6739 
       2 S1         1.4765    0.4985    4.8912 S.o2      1 <1>         2.6162 
       3 O1         2.4473   -0.2215    4.1272 O.2       1 <1>        -0.9566 
       4 O2         0.3237   -0.3235    5.0915 O.2       1 <1>        -0.9591 
       5 N1         2.1612    0.9325    6.4421 N.pl3     1 <1>        -1.1210 
       6 C2         3.2907    1.8707    6.5095 C.3       1 <1>         0.1110 
       7 C3         4.6032    1.0887    6.4908 C.3       1 <1>        -0.1273 
       8 C4         5.7774    2.0640    6.5610 C.3       1 <1>        -0.1200 
       9 C5         7.0898    1.2819    6.5423 C.3       1 <1>        -0.1200 
      10 C6         8.2640    2.2573    6.6125 C.3       1 <1>        -0.1273 
      11 C7         9.5764    1.4752    6.5938 C.3       1 <1>         0.1110 
      12 N2         9.6701    0.7066    5.3442 N.pl3     1 <1>        -1.1210 
      13 S2        10.4673    1.3997    3.9490 S.o2      1 <1>         2.6161 
      14 O3        10.5217    0.4285    2.9008 O.2       1 <1>        -0.9591 
      15 O4         9.7352    2.5440    3.5024 O.2       1 <1>        -0.9566 
      16 C8        12.1482    1.8962    4.4007 C.3       1 <1>        -0.6739 
      17 H1         0.5638    1.7280    3.0406 H         1 <1>         0.1263 
      18 H2         0.2720    2.5543    4.5864 H         1 <1>         0.1286 
      19 H3         1.8810    2.6175    3.8350 H         1 <1>         0.1300 
      20 H4         1.7801    0.5382    7.2902 H         1 <1>         0.4190 
      21 H5         3.2554    2.5419    5.6540 H         1 <1>         0.0640 
      22 H6         3.2259    2.4499    7.4284 H         1 <1>         0.0819 
      23 H7         4.6368    0.4175    7.3464 H         1 <1>         0.0741 
      24 H8         4.6664    0.5095    5.5720 H         1 <1>         0.0711 
      25 H9         5.7421    2.7352    5.7053 H         1 <1>         0.0667 
      26 H10        5.7125    2.6432    7.4798 H         1 <1>         0.0690 
      27 H11        7.1235    0.6107    7.3980 H         1 <1>         0.0690 
      28 H12        7.1530    0.7027    5.6235 H         1 <1>         0.0667 
      29 H13        8.2287    2.9283    5.7568 H         1 <1>         0.0711 
      30 H14        8.1991    2.8363    7.5312 H         1 <1>         0.0741 
      31 H15       10.4121    2.1687    6.6571 H         1 <1>         0.0819 
      32 H16        9.6042    0.7943    7.4419 H         1 <1>         0.0640 
      33 H17        9.2743   -0.2211    5.2914 H         1 <1>         0.4190 
      34 H18       12.7079    1.0226    4.7285 H         1 <1>         0.1286 
      35 H19       12.6393    2.3392    3.5368 H         1 <1>         0.1300 
      36 H20       12.1061    2.6246    5.2079 H         1 <1>         0.1263 
@<TRIPOS>BOND
       1        1        2 1        
       2        1       17 1        
       3        1       18 1        
       4        1       19 1        
       5        2        3 2        
       6        2        4 2        
       7        2        5 1        
       8        5        6 1        
       9        5       20 1        
      10        6        7 1        
      11        6       21 1        
      12        6       22 1        
      13        7        8 1        
      14        7       23 1        
      15        7       24 1        
      16        8        9 1        
      17        8       25 1        
      18        8       26 1        
      19        9       10 1        
      20        9       27 1        
      21        9       28 1        
      22       10       11 1        
      23       10       29 1        
      24       10       30 1        
      25       11       12 1        
      26       11       31 1        
      27       11       32 1        
      28       12       13 1        
      29       12       33 1        
      30       13       14 2        
      31       13       15 2        
      32       13       16 1        
      33       16       34 1        
      34       16       35 1        
      35       16       36 1        
@<TRIPOS>SUBSTRUCTURE
 1 **** 1 TEMP 0 **** **** 0 ROOT

