#        1GCZ_R01_S0001_C0000_L00026_S0001_C0028_G0010_E0001.mol2
#        Tue Jun  6 10:02:52 2017
#        Descriptor:     31    32    27     6     9     8
#        Energy - RMSD - RMSD MassCentre:     -36.5014    999.9999    999.9999
#        Receptor:       1  Surface Point:     1  Conformer:     0
#        Ligand:        26  Surface Point:     1  Conformer:    28
#        BUDE Formal Charge: 0
#        ATOM Count: 36
#        Heavy ATOM Count: 16
@<TRIPOS>MOLECULE
ZINC02096229_0_1GCZ_R01_S0001_C0000_L00026_S0001_C0028_G0010_E0001
 36 35 1 0 0
SMALL
USER_CHARGES
INVALID_CHARGES
@<TRIPOS>ATOM
       1 C1        -1.9993    1.0001   -0.0010 C.3       1 <1>        -0.6739 
       2 S1        -0.6135    0.2522    0.8912 S.o2      1 <1>         2.6162 
       3 O1         0.5021    0.1137    0.0075 O.2       1 <1>        -0.9566 
       4 O2        -0.9982   -1.0363    1.3773 O.2       1 <1>        -0.9591 
       5 N1        -0.1657    1.2751    2.2386 N.pl3     1 <1>        -1.1210 
       6 C2        -1.1729    1.6534    3.2402 C.3       1 <1>         0.1110 
       7 C3        -1.1494    0.6473    4.3898 C.3       1 <1>        -0.1273 
       8 C4        -2.1965    1.0405    5.4310 C.3       1 <1>        -0.1200 
       9 C5        -2.1730    0.0343    6.5806 C.3       1 <1>        -0.1200 
      10 C6        -3.2201    0.4276    7.6218 C.3       1 <1>        -0.1273 
      11 C7        -3.1967   -0.5787    8.7715 C.3       1 <1>         0.1110 
      12 N2        -1.8696   -0.5684    9.4036 N.pl3     1 <1>        -1.1210 
      13 S2        -1.5614    0.4767   10.7731 S.o2      1 <1>         2.6161 
      14 O3        -0.2438    0.2316   11.2717 O.2       1 <1>        -0.9591 
      15 O4        -1.6709    1.8424   10.3636 O.2       1 <1>        -0.9566 
      16 C8        -2.7729    0.1370   12.0744 C.3       1 <1>        -0.6739 
      17 H1        -2.2848    0.3570   -0.8308 H         1 <1>         0.1263 
      18 H2        -2.8438    1.1176    0.6747 H         1 <1>         0.1286 
      19 H3        -1.7008    1.9742   -0.3824 H         1 <1>         0.1300 
      20 H4         0.7847    1.6051    2.3276 H         1 <1>         0.4190 
      21 H5        -0.9481    2.6471    3.6221 H         1 <1>         0.0640 
      22 H6        -2.1585    1.6558    2.7793 H         1 <1>         0.0819 
      23 H7        -1.3735   -0.3458    4.0064 H         1 <1>         0.0741 
      24 H8        -0.1631    0.6454    4.8491 H         1 <1>         0.0711 
      25 H9        -1.9717    2.0341    5.8130 H         1 <1>         0.0667 
      26 H10       -3.1821    1.0429    4.9702 H         1 <1>         0.0690 
      27 H11       -2.3973   -0.9589    6.1972 H         1 <1>         0.0690 
      28 H12       -1.1868    0.0324    7.0400 H         1 <1>         0.0667 
      29 H13       -2.9952    1.4211    8.0040 H         1 <1>         0.0711 
      30 H14       -4.2057    0.4299    7.1610 H         1 <1>         0.0741 
      31 H15       -3.9512   -0.3062    9.5064 H         1 <1>         0.0819 
      32 H16       -3.4077   -1.5739    8.3859 H         1 <1>         0.0640 
      33 H17       -1.1362   -1.1642    9.0472 H         1 <1>         0.4190 
      34 H18       -2.6802   -0.8989   12.3938 H         1 <1>         0.1286 
      35 H19       -2.5895    0.7959   12.9205 H         1 <1>         0.1300 
      36 H20       -3.7757    0.3102   11.6896 H         1 <1>         0.1263 
@<TRIPOS>BOND
       1        1        2 1        
       2        1       17 1        
       3        1       18 1        
       4        1       19 1        
       5        2        3 2        
       6        2        4 2        
       7        2        5 1        
       8        5        6 1        
       9        5       20 1        
      10        6        7 1        
      11        6       21 1        
      12        6       22 1        
      13        7        8 1        
      14        7       23 1        
      15        7       24 1        
      16        8        9 1        
      17        8       25 1        
      18        8       26 1        
      19        9       10 1        
      20        9       27 1        
      21        9       28 1        
      22       10       11 1        
      23       10       29 1        
      24       10       30 1        
      25       11       12 1        
      26       11       31 1        
      27       11       32 1        
      28       12       13 1        
      29       12       33 1        
      30       13       14 2        
      31       13       15 2        
      32       13       16 1        
      33       16       34 1        
      34       16       35 1        
      35       16       36 1        
@<TRIPOS>SUBSTRUCTURE
 1 **** 1 TEMP 0 **** **** 0 ROOT

