#        1GCZ_R01_S0001_C0000_L00026_S0001_C0028_G0010_E0001.mol2
#        Tue Jun  6 14:22:32 2017
#        Descriptor:     26    33    30     6     7    10
#        Energy - RMSD - RMSD MassCentre:     -30.4245    999.9999    999.9999
#        Receptor:       1  Surface Point:     1  Conformer:     0
#        Ligand:        26  Surface Point:     1  Conformer:    28
#        BUDE Formal Charge: 0
#        ATOM Count: 36
#        Heavy ATOM Count: 16
@<TRIPOS>MOLECULE
ZINC02096229_0_1GCZ_R01_S0001_C0000_L00026_S0001_C0028_G0010_E0001
 36 35 1 0 0
SMALL
USER_CHARGES
INVALID_CHARGES
@<TRIPOS>ATOM
       1 C1        -2.0002   -1.0001    1.9988 C.3       1 <1>        -0.6739 
       2 S1        -0.5350    0.0273    1.7278 S.o2      1 <1>         2.6162 
       3 O1        -0.3202    0.1888    0.3234 O.2       1 <1>        -0.9566 
       4 O2         0.6062   -0.6042    2.3141 O.2       1 <1>        -0.9591 
       5 N1        -0.7770    1.5963    2.4641 N.pl3     1 <1>        -1.1210 
       6 C2        -1.1172    1.6935    3.8908 C.3       1 <1>         0.1110 
       7 C3         0.1639    1.8449    4.7096 C.3       1 <1>        -0.1273 
       8 C4        -0.1896    1.9460    6.1928 C.3       1 <1>        -0.1200 
       9 C5         1.0915    2.0974    7.0116 C.3       1 <1>        -0.1200 
      10 C6         0.7379    2.1984    8.4948 C.3       1 <1>        -0.1273 
      11 C7         2.0190    2.3498    9.3137 C.3       1 <1>         0.1110 
      12 N2         2.7179    3.5772    8.9062 N.pl3     1 <1>        -1.1210 
      13 S2         2.4136    5.0785    9.7523 S.o2      1 <1>         2.6161 
      14 O3         3.2818    6.0951    9.2449 O.2       1 <1>        -0.9591 
      15 O4         1.0525    5.4695    9.5531 O.2       1 <1>        -0.9566 
      16 C8         2.7231    4.8468   11.5206 C.3       1 <1>        -0.6739 
      17 H1        -1.8433   -1.9793    1.5515 H         1 <1>         0.1263 
      18 H2        -2.1712   -1.1120    3.0673 H         1 <1>         0.1286 
      19 H3        -2.8649   -0.5254    1.5401 H         1 <1>         0.1300 
      20 H4        -0.6829    2.4344    1.9084 H         1 <1>         0.4190 
      21 H5        -1.7562    2.5591    4.0524 H         1 <1>         0.0640 
      22 H6        -1.6418    0.7919    4.2001 H         1 <1>         0.0819 
      23 H7         0.8022    0.9792    4.5465 H         1 <1>         0.0741 
      24 H8         0.6879    2.7464    4.3988 H         1 <1>         0.0711 
      25 H9        -0.8286    2.8116    6.3544 H         1 <1>         0.0667 
      26 H10       -0.7143    1.0444    6.5021 H         1 <1>         0.0690 
      27 H11        1.7298    1.2315    6.8487 H         1 <1>         0.0690 
      28 H12        1.6154    2.9988    6.7009 H         1 <1>         0.0667 
      29 H13        0.0990    3.0642    8.6565 H         1 <1>         0.0711 
      30 H14        0.2133    1.2968    8.8041 H         1 <1>         0.0741 
      31 H15        1.7682    2.4084   10.3707 H         1 <1>         0.0819 
      32 H16        2.6632    1.4903    9.1402 H         1 <1>         0.0640 
      33 H17        3.3732    3.5535    8.1381 H         1 <1>         0.4190 
      34 H18        3.7621    4.5614   11.6718 H         1 <1>         0.1286 
      35 H19        2.5211    5.7765   12.0483 H         1 <1>         0.1300 
      36 H20        2.0719    4.0632   11.9025 H         1 <1>         0.1263 
@<TRIPOS>BOND
       1        1        2 1        
       2        1       17 1        
       3        1       18 1        
       4        1       19 1        
       5        2        3 2        
       6        2        4 2        
       7        2        5 1        
       8        5        6 1        
       9        5       20 1        
      10        6        7 1        
      11        6       21 1        
      12        6       22 1        
      13        7        8 1        
      14        7       23 1        
      15        7       24 1        
      16        8        9 1        
      17        8       25 1        
      18        8       26 1        
      19        9       10 1        
      20        9       27 1        
      21        9       28 1        
      22       10       11 1        
      23       10       29 1        
      24       10       30 1        
      25       11       12 1        
      26       11       31 1        
      27       11       32 1        
      28       12       13 1        
      29       12       33 1        
      30       13       14 2        
      31       13       15 2        
      32       13       16 1        
      33       16       34 1        
      34       16       35 1        
      35       16       36 1        
@<TRIPOS>SUBSTRUCTURE
 1 **** 1 TEMP 0 **** **** 0 ROOT

