#        1GCZ_R01_S0001_C0000_L00003_S0001_C0046_G0010_E0001.mol2
#        Tue Jun  6 14:05:00 2017
#        Descriptor:     12    26    26    10     6    15
#        Energy - RMSD - RMSD MassCentre:     -59.3715    999.9999    999.9999
#        Receptor:       1  Surface Point:     1  Conformer:     0
#        Ligand:         3  Surface Point:     1  Conformer:    46
#        BUDE Formal Charge: 0
#        ATOM Count: 58
#        Heavy ATOM Count: 30
@<TRIPOS>MOLECULE
ZINC61580633_1GCZ_R01_S0001_C0000_L00003_S0001_C0046_G0010_E0001
 58 59 0 0 0
SMALL
USER_CHARGES
@<TRIPOS>ATOM
       1 C1         0.3381   -8.1429    9.6856 C.3       1 <0>        -0.1532 
       2 C2         1.7099   -7.5751   10.0384 C.3       1 <0>        -0.1224 
       3 C3         1.5429   -6.1837   10.6476 C.3       1 <0>        -0.1198 
       4 C4         0.8719   -5.2609    9.6312 C.3       1 <0>         0.0610 
       5 O1         0.7157   -3.9588   10.2012 O.3       1 <0>        -0.3878 
       6 C5         0.0908   -3.0486    9.2923 C.3       1 <0>         0.0487 
       7 C6        -1.3008   -3.5659    8.9312 C.3       1 <0>         0.1244 
       8 N1        -1.9431   -2.6304    7.9969 N.am      1 <0>        -0.7216 
       9 C7        -1.5198   -2.5523    6.7385 C.2       1 <0>         0.5161 
      10 O2        -0.5914   -3.2624    6.3560 O.2       1 <0>        -0.5151 
      11 C8        -2.1797   -1.5912    5.7787 C.3       1 <0>         0.0490 
      12 O3        -1.8517   -0.2493    6.1483 O.3       1 <0>        -0.3194 
      13 C9        -0.5546    0.1218    6.0998 C.2       1 <0>         0.5417 
      14 O4         0.2969   -0.6782    5.7487 O.2       1 <0>        -0.5337 
      15 C10       -0.1653    1.5000    6.4728 C.2       1 <0>        -0.2559 
      16 C11       -1.1161    2.5512    6.8989 C.2       1 <0>        -0.0791 
      17 C12       -0.5079    3.7093    7.1657 C.2       1 <0>        -0.2585 
      18 S1         1.2449    3.6291    6.9341 S.3       1 <0>         0.3028 
      19 C13        1.1023    1.9334    6.4471 C.2       1 <0>         0.0893 
      20 N2         2.1422    1.1252    6.0698 N.am      1 <0>        -0.6099 
      21 C14        3.3846    1.5997    6.0596 C.2       1 <0>         0.5551 
      22 O5         3.6002    2.7649    6.3893 O.2       1 <0>        -0.4939 
      23 C15        4.5068    0.7252    5.6519 C.ar      1 <0>        -0.1466 
      24 C16        5.7979    1.2666    5.6528 C.ar      1 <0>        -0.0772 
      25 C17        6.8897    0.5120    5.2072 C.ar      1 <0>        -0.1241 
      26 C18        6.7087   -0.7958    4.7423 C.ar      1 <0>        -0.0446 
      27 C19        5.4274   -1.3579    4.7901 C.ar      1 <0>        -0.1261 
      28 C20        4.3430   -0.6099    5.2638 C.ar      1 <0>        -0.0460 
      29 C21        7.8892   -1.5713    4.2079 C.3       1 <0>        -0.0928 
      30 C22        8.0168   -1.3309    2.7064 C.3       1 <0>        -0.1485 
      31 H1        -0.1454   -7.4951    8.9573 H         1 <0>         0.0567 
      32 H2        -0.2726   -8.1985   10.5842 H         1 <0>         0.0554 
      33 H3         0.4560   -9.1389    9.2643 H         1 <0>         0.0557 
      34 H4         2.1997   -8.2287   10.7573 H         1 <0>         0.0632 
      35 H5         2.3169   -7.5056    9.1381 H         1 <0>         0.0635 
      36 H6         0.9245   -6.2497   11.5401 H         1 <0>         0.0711 
      37 H7         2.5195   -5.7829   10.9110 H         1 <0>         0.0704 
      38 H8         1.4900   -5.1934    8.7382 H         1 <0>         0.0498 
      39 H9        -0.1052   -5.6602    9.3676 H         1 <0>         0.0505 
      40 H10        0.6922   -2.9666    8.3893 H         1 <0>         0.0584 
      41 H11        0.0032   -2.0704    9.7605 H         1 <0>         0.0702 
      42 H12       -1.9034   -3.6474    9.8334 H         1 <0>         0.0872 
      43 H13       -1.2145   -4.5437    8.4623 H         1 <0>         0.0805 
      44 H14       -2.7057   -2.0468    8.3100 H         1 <0>         0.4058 
      45 H15       -1.8250   -1.7855    4.7687 H         1 <0>         0.1008 
      46 H16       -3.2588   -1.7236    5.8166 H         1 <0>         0.0999 
      47 H17       -2.1778    2.3752    6.9887 H         1 <0>         0.1557 
      48 H18       -1.0412    4.5872    7.4992 H         1 <0>         0.1929 
      49 H19        1.9651    0.1684    5.7991 H         1 <0>         0.4317 
      50 H20        5.9553    2.2783    5.9962 H         1 <0>         0.1287 
      51 H21        7.8819    0.9381    5.2183 H         1 <0>         0.1326 
      52 H22        5.2885   -2.3769    4.4604 H         1 <0>         0.1342 
      53 H23        3.3908   -1.1148    5.3330 H         1 <0>         0.1410 
      54 H24        7.7395   -2.6326    4.3945 H         1 <0>         0.0777 
      55 H25        8.7967   -1.2391    4.7075 H         1 <0>         0.0771 
      56 H26        8.1790   -0.2710    2.5220 H         1 <0>         0.0623 
      57 H27        7.1031   -1.6505    2.2096 H         1 <0>         0.0572 
      58 H28        8.8592   -1.9002    2.3191 H         1 <0>         0.0578 
@<TRIPOS>BOND
       1        1        2 1        
       2        1       31 1        
       3        1       32 1        
       4        1       33 1        
       5        2        3 1        
       6        2       34 1        
       7        2       35 1        
       8        3        4 1        
       9        3       36 1        
      10        3       37 1        
      11        4        5 1        
      12        4       38 1        
      13        4       39 1        
      14        5        6 1        
      15        6        7 1        
      16        6       40 1        
      17        6       41 1        
      18        7        8 1        
      19        7       42 1        
      20        7       43 1        
      21        8        9 am       
      22        8       44 1        
      23        9       10 2        
      24        9       11 1        
      25       11       12 1        
      26       11       45 1        
      27       11       46 1        
      28       12       13 1        
      29       13       14 2        
      30       13       15 1        
      31       15       19 2        
      32       15       16 1        
      33       16       17 2        
      34       16       47 1        
      35       17       18 1        
      36       17       48 1        
      37       18       19 1        
      38       19       20 1        
      39       20       21 am       
      40       20       49 1        
      41       21       22 2        
      42       21       23 1        
      43       23       28 ar       
      44       23       24 ar       
      45       24       25 ar       
      46       24       50 1        
      47       25       26 ar       
      48       25       51 1        
      49       26       27 ar       
      50       26       29 1        
      51       27       28 ar       
      52       27       52 1        
      53       28       53 1        
      54       29       30 1        
      55       29       54 1        
      56       29       55 1        
      57       30       56 1        
      58       30       57 1        
      59       30       58 1        

