#        1GCZ_R01_S0001_C0000_L00026_S0001_C0029_G0010_E0001.mol2
#        Tue Jun  6 10:02:53 2017
#        Descriptor:     32    34    28     7     8     5
#        Energy - RMSD - RMSD MassCentre:     -43.7834    999.9999    999.9999
#        Receptor:       1  Surface Point:     1  Conformer:     0
#        Ligand:        26  Surface Point:     1  Conformer:    29
#        BUDE Formal Charge: 0
#        ATOM Count: 36
#        Heavy ATOM Count: 16
@<TRIPOS>MOLECULE
ZINC02096229_0_1GCZ_R01_S0001_C0000_L00026_S0001_C0029_G0010_E0001
 36 35 1 0 0
SMALL
USER_CHARGES
INVALID_CHARGES
@<TRIPOS>ATOM
       1 C1        -0.9991   -0.0002   -3.0009 C.3       1 <1>        -0.6739 
       2 S1         0.2281   -0.2650   -1.6972 S.o2      1 <1>         2.6162 
       3 O1         1.4977   -0.5505   -2.2898 O.2       1 <1>        -0.9566 
       4 O2        -0.1740   -1.3670   -0.8795 O.2       1 <1>        -0.9591 
       5 N1         0.3557    1.1765   -0.7131 N.pl3     1 <1>        -1.1210 
       6 C2        -0.8429    1.7375   -0.0732 C.3       1 <1>         0.1110 
       7 C3        -0.9865    1.1580    1.3333 C.3       1 <1>        -0.1273 
       8 C4         0.2395    1.5321    2.1650 C.3       1 <1>        -0.1200 
       9 C5         0.0957    0.9526    3.5715 C.3       1 <1>        -0.1200 
      10 C6         1.3218    1.3266    4.4033 C.3       1 <1>        -0.1273 
      11 C7         1.1780    0.7472    5.8098 C.3       1 <1>         0.1110 
      12 N2        -0.0206    1.3082    6.4498 N.pl3     1 <1>        -1.1210 
      13 S2         0.1071    2.7496    7.4337 S.o2      1 <1>         2.6161 
      14 O3         0.4934    3.8541    6.6118 O.2       1 <1>        -0.9591 
      15 O4        -1.1582    3.0252    8.0404 O.2       1 <1>        -0.9566 
      16 C8         1.3516    2.4909    8.7223 C.3       1 <1>        -0.6739 
      17 H1        -1.0866   -0.9014   -3.6040 H         1 <1>         0.1263 
      18 H2        -1.9621    0.2301   -2.5502 H         1 <1>         0.1286 
      19 H3        -0.6850    0.8294   -3.6306 H         1 <1>         0.1300 
      20 H4         1.2529    1.6224   -0.5853 H         1 <1>         0.4190 
      21 H5        -0.7479    2.8197   -0.0125 H         1 <1>         0.0640 
      22 H6        -1.7209    1.4825   -0.6628 H         1 <1>         0.0819 
      23 H7        -1.8808    1.5630    1.8019 H         1 <1>         0.0741 
      24 H8        -1.0672    0.0747    1.2720 H         1 <1>         0.0711 
      25 H9         1.1333    1.1271    1.6948 H         1 <1>         0.0667 
      26 H10        0.3196    2.6155    2.2248 H         1 <1>         0.0690 
      27 H11       -0.7986    1.3577    4.0403 H         1 <1>         0.0690 
      28 H12        0.0149   -0.1307    3.5103 H         1 <1>         0.0667 
      29 H13        2.2155    0.9217    3.9331 H         1 <1>         0.0711 
      30 H14        1.4018    2.4101    4.4631 H         1 <1>         0.0741 
      31 H15        1.0839   -0.3349    5.7477 H         1 <1>         0.0819 
      32 H16        2.0570    1.0023    6.3981 H         1 <1>         0.0640 
      33 H17       -0.9172    0.8613    6.3213 H         1 <1>         0.4190 
      34 H18        2.3163    2.2937    8.2595 H         1 <1>         0.1286 
      35 H19        1.4215    3.3823    9.3423 H         1 <1>         0.1300 
      36 H20        1.0637    1.6415    9.3384 H         1 <1>         0.1263 
@<TRIPOS>BOND
       1        1        2 1        
       2        1       17 1        
       3        1       18 1        
       4        1       19 1        
       5        2        3 2        
       6        2        4 2        
       7        2        5 1        
       8        5        6 1        
       9        5       20 1        
      10        6        7 1        
      11        6       21 1        
      12        6       22 1        
      13        7        8 1        
      14        7       23 1        
      15        7       24 1        
      16        8        9 1        
      17        8       25 1        
      18        8       26 1        
      19        9       10 1        
      20        9       27 1        
      21        9       28 1        
      22       10       11 1        
      23       10       29 1        
      24       10       30 1        
      25       11       12 1        
      26       11       31 1        
      27       11       32 1        
      28       12       13 1        
      29       12       33 1        
      30       13       14 2        
      31       13       15 2        
      32       13       16 1        
      33       16       34 1        
      34       16       35 1        
      35       16       36 1        
@<TRIPOS>SUBSTRUCTURE
 1 **** 1 TEMP 0 **** **** 0 ROOT

