#        1GCZ_R01_S0001_C0000_L00026_S0001_C0029_G0010_E0001.mol2
#        Tue Jun  6 14:22:33 2017
#        Descriptor:     33    33    25     7     9     8
#        Energy - RMSD - RMSD MassCentre:     -36.0662    999.9999    999.9999
#        Receptor:       1  Surface Point:     1  Conformer:     0
#        Ligand:        26  Surface Point:     1  Conformer:    29
#        BUDE Formal Charge: 0
#        ATOM Count: 36
#        Heavy ATOM Count: 16
@<TRIPOS>MOLECULE
ZINC02096229_0_1GCZ_R01_S0001_C0000_L00026_S0001_C0029_G0010_E0001
 36 35 1 0 0
SMALL
USER_CHARGES
INVALID_CHARGES
@<TRIPOS>ATOM
       1 C1        -0.9992    0.9994   -0.0008 C.3       1 <1>        -0.6739 
       2 S1        -0.4177   -0.0460    1.3574 S.o2      1 <1>         2.6162 
       3 O1         0.5860   -0.9416    0.8724 O.2       1 <1>        -0.9566 
       4 O2        -1.5135   -0.7992    1.8833 O.2       1 <1>        -0.9591 
       5 N1         0.2596    0.9591    2.6198 N.pl3     1 <1>        -1.1210 
       6 C2        -0.5470    2.0343    3.2148 C.3       1 <1>         0.1110 
       7 C3        -1.2734    1.5014    4.4489 C.3       1 <1>        -0.1273 
       8 C4        -0.2477    1.0257    5.4767 C.3       1 <1>        -0.1200 
       9 C5        -0.9742    0.4928    6.7108 C.3       1 <1>        -0.1200 
      10 C6         0.0515    0.0171    7.7387 C.3       1 <1>        -0.1273 
      11 C7        -0.6750   -0.5157    8.9728 C.3       1 <1>         0.1110 
      12 N2        -1.4817    0.5596    9.5678 N.pl3     1 <1>        -1.1210 
      13 S2        -0.8043    1.5645   10.8301 S.o2      1 <1>         2.6161 
      14 O3         0.2809    2.3292   10.2987 O.2       1 <1>        -0.9591 
      15 O4        -1.8128    2.4481   11.3274 O.2       1 <1>        -0.9566 
      16 C8        -0.2022    0.5158   12.1769 C.3       1 <1>        -0.6739 
      17 H1        -1.4314    0.3743   -0.7792 H         1 <1>         0.1263 
      18 H2        -1.7533    1.6898    0.3711 H         1 <1>         0.1286 
      19 H3        -0.1620    1.5614   -0.4091 H         1 <1>         0.1300 
      20 H4         1.2045    0.7999    2.9391 H         1 <1>         0.4190 
      21 H5         0.1034    2.8575    3.5030 H         1 <1>         0.0640 
      22 H6        -1.2759    2.3849    2.4871 H         1 <1>         0.0819 
      23 H7        -1.8807    2.2935    4.8814 H         1 <1>         0.0741 
      24 H8        -1.9126    0.6692    4.1614 H         1 <1>         0.0711 
      25 H9         0.3596    0.2341    5.0426 H         1 <1>         0.0667 
      26 H10        0.3914    1.8585    5.7626 H         1 <1>         0.0690 
      27 H11       -1.5816    1.2851    7.1435 H         1 <1>         0.0690 
      28 H12       -1.6135   -0.3393    6.4235 H         1 <1>         0.0667 
      29 H13        0.6587   -0.7745    7.3046 H         1 <1>         0.0711 
      30 H14        0.6906    0.8499    8.0246 H         1 <1>         0.0741 
      31 H15       -1.3243   -1.3393    8.6833 H         1 <1>         0.0819 
      32 H16        0.0550   -0.8667    9.6993 H         1 <1>         0.0640 
      33 H17       -2.4265    0.7177    9.2478 H         1 <1>         0.4190 
      34 H18        0.5738   -0.1473   11.8001 H         1 <1>         0.1286 
      35 H19        0.2068    1.1412   12.9676 H         1 <1>         0.1300 
      36 H20       -1.0259   -0.0759   12.5710 H         1 <1>         0.1263 
@<TRIPOS>BOND
       1        1        2 1        
       2        1       17 1        
       3        1       18 1        
       4        1       19 1        
       5        2        3 2        
       6        2        4 2        
       7        2        5 1        
       8        5        6 1        
       9        5       20 1        
      10        6        7 1        
      11        6       21 1        
      12        6       22 1        
      13        7        8 1        
      14        7       23 1        
      15        7       24 1        
      16        8        9 1        
      17        8       25 1        
      18        8       26 1        
      19        9       10 1        
      20        9       27 1        
      21        9       28 1        
      22       10       11 1        
      23       10       29 1        
      24       10       30 1        
      25       11       12 1        
      26       11       31 1        
      27       11       32 1        
      28       12       13 1        
      29       12       33 1        
      30       13       14 2        
      31       13       15 2        
      32       13       16 1        
      33       16       34 1        
      34       16       35 1        
      35       16       36 1        
@<TRIPOS>SUBSTRUCTURE
 1 **** 1 TEMP 0 **** **** 0 ROOT

