#        1GCZ_R01_S0001_C0000_L00026_S0001_C0030_G0010_E0001.mol2
#        Tue Jun  6 10:02:53 2017
#        Descriptor:      5    35    30     9     9     9
#        Energy - RMSD - RMSD MassCentre:     -36.3712    999.9999    999.9999
#        Receptor:       1  Surface Point:     1  Conformer:     0
#        Ligand:        26  Surface Point:     1  Conformer:    30
#        BUDE Formal Charge: 0
#        ATOM Count: 36
#        Heavy ATOM Count: 16
@<TRIPOS>MOLECULE
ZINC02096229_0_1GCZ_R01_S0001_C0000_L00026_S0001_C0030_G0010_E0001
 36 35 1 0 0
SMALL
USER_CHARGES
INVALID_CHARGES
@<TRIPOS>ATOM
       1 C1         1.0010    0.9997    1.0007 C.3       1 <1>        -0.6739 
       2 S1        -0.0997    0.1318    2.1457 S.o2      1 <1>         2.6162 
       3 O1         0.6701   -0.4310    3.2112 O.2       1 <1>        -0.9566 
       4 O2        -0.7847   -0.9130    1.4502 O.2       1 <1>        -0.9591 
       5 N1        -1.2662    1.2589    2.8025 N.pl3     1 <1>        -1.1210 
       6 C2        -0.8072    2.4873    3.4665 C.3       1 <1>         0.1110 
       7 C3        -0.6644    2.2317    4.9661 C.3       1 <1>        -0.1273 
       8 C4        -2.0212    1.8334    5.5455 C.3       1 <1>        -0.1200 
       9 C5        -1.8784    1.5779    7.0451 C.3       1 <1>        -0.1200 
      10 C6        -3.2351    1.1795    7.6245 C.3       1 <1>        -0.1273 
      11 C7        -3.0922    0.9239    9.1241 C.3       1 <1>         0.1110 
      12 N2        -2.6333    2.1525    9.7882 N.pl3     1 <1>        -1.1210 
      13 S2        -3.7998    3.2795   10.4449 S.o2      1 <1>         2.6161 
      14 O3        -3.1127    4.3324   11.1262 O.2       1 <1>        -0.9591 
      15 O4        -4.5815    3.8291    9.3812 O.2       1 <1>        -0.9566 
      16 C8        -4.8845    2.4145   11.6075 C.3       1 <1>        -0.6739 
      17 H1         1.7176    0.2954    0.5836 H         1 <1>         0.1263 
      18 H2         0.4138    1.4392    0.1972 H         1 <1>         0.1286 
      19 H3         1.5319    1.7851    1.5343 H         1 <1>         0.1300 
      20 H4        -2.2544    1.0649    2.7250 H         1 <1>         0.4190 
      21 H5         0.1555    2.7833    3.0550 H         1 <1>         0.0640 
      22 H6        -1.5326    3.2812    3.3006 H         1 <1>         0.0819 
      23 H7         0.0505    1.4283    5.1299 H         1 <1>         0.0741 
      24 H8        -0.3120    3.1372    5.4558 H         1 <1>         0.0711 
      25 H9        -2.7355    2.6374    5.3803 H         1 <1>         0.0667 
      26 H10       -2.3729    0.9285    5.0544 H         1 <1>         0.0690 
      27 H11       -1.1634    0.7742    7.2089 H         1 <1>         0.0690 
      28 H12       -1.5259    2.4832    7.5347 H         1 <1>         0.0667 
      29 H13       -3.9494    1.9835    7.4593 H         1 <1>         0.0711 
      30 H14       -3.5868    0.2746    7.1334 H         1 <1>         0.0741 
      31 H15       -4.0554    0.6275    9.5342 H         1 <1>         0.0819 
      32 H16       -2.3673    0.1295    9.2885 H         1 <1>         0.0640 
      33 H17       -1.6448    2.3455    9.8649 H         1 <1>         0.4190 
      34 H18       -4.2902    2.0075   12.4229 H         1 <1>         0.1286 
      35 H19       -5.6181    3.1123   12.0057 H         1 <1>         0.1300 
      36 H20       -5.3961    1.6047   11.0913 H         1 <1>         0.1263 
@<TRIPOS>BOND
       1        1        2 1        
       2        1       17 1        
       3        1       18 1        
       4        1       19 1        
       5        2        3 2        
       6        2        4 2        
       7        2        5 1        
       8        5        6 1        
       9        5       20 1        
      10        6        7 1        
      11        6       21 1        
      12        6       22 1        
      13        7        8 1        
      14        7       23 1        
      15        7       24 1        
      16        8        9 1        
      17        8       25 1        
      18        8       26 1        
      19        9       10 1        
      20        9       27 1        
      21        9       28 1        
      22       10       11 1        
      23       10       29 1        
      24       10       30 1        
      25       11       12 1        
      26       11       31 1        
      27       11       32 1        
      28       12       13 1        
      29       12       33 1        
      30       13       14 2        
      31       13       15 2        
      32       13       16 1        
      33       16       34 1        
      34       16       35 1        
      35       16       36 1        
@<TRIPOS>SUBSTRUCTURE
 1 **** 1 TEMP 0 **** **** 0 ROOT

