@<TRIPOS>MOLECULE
pdb1gcz_ligA.pdb
27 28 1 0 0
SMALL
GASTEIGER


@<TRIPOS>ATOM
      1 C3          3.2822   -3.7557    1.0758 C.3       1 YZ9900    0.0513
      2 C11         2.2050   -3.3595    0.1070 C.3       1 YZ9900    0.2089
      3 O1          0.2547   -2.2115    2.6730 O.2       1 YZ9900   -0.2447
      4 O2          0.9012   -3.3046    0.8126 O.3       1 YZ9900   -0.4453
      5 C6         -0.1491    2.7413    0.9832 C.ar      1 YZ9900    0.0063
      6 C5          0.0254    0.2489    1.3260 C.ar      1 YZ9900    0.0160
      7 C4         -1.1108    2.2628   -1.7511 C.ar      1 YZ9900    0.0796
      8 O3         -0.9080   -0.0946   -1.3148 O.2       1 YZ9900   -0.4208
      9 C2         -0.3073    1.4310    0.4724 C.ar      1 YZ9900    0.0353
     10 C1         -0.7770    1.2185   -0.8601 C.ar      1 YZ9900    0.1519
     11 C7         -0.5551   -1.1452   -0.6096 C.ar      1 YZ9900    0.3521
     12 C12         0.3882   -2.2320    1.4873 C.2       1 YZ9900    0.3476
     13 O4         -1.2126    4.6407   -1.9453 O.3       1 YZ9900   -0.2865
     14 O5         -0.6556   -2.2005   -1.0943 O.2       1 YZ9900   -0.2442
     15 C10        -0.4702    3.8313    0.1229 C.ar      1 YZ9900    0.0422
     16 C9         -0.0424   -0.9946    0.7585 C.ar      1 YZ9900    0.1515
     17 C8         -0.9306    3.5673   -1.1870 C.ar      1 YZ9900    0.1988
     18 H31         3.3183   -3.0363    1.8940 H         1 YZ9900    0.0000
     19 H32         3.0660   -4.7473    1.4735 H         1 YZ9900    0.0000
     20 H33         4.2439   -3.7716    0.5631 H         1 YZ9900    0.0000
     21 H112        2.1521   -4.0932   -0.6974 H         1 YZ9900    0.0000
     22 H113        2.4340   -2.3788   -0.3101 H         1 YZ9900    0.0000
     23 H6          0.2027    2.9095    1.9902 H         1 YZ9900    0.0000
     24 H5          0.3109    0.3729    2.3601 H         1 YZ9900    0.0000
     25 H4         -1.4663    2.0945   -2.7569 H         1 YZ9900    0.0000
     26 HO4        -0.3966    5.0819   -2.1923 H         1 YZ9900    0.0000
     27 H10        -0.3627    4.8489    0.4685 H         1 YZ9900    0.0000
@<TRIPOS>BOND
     1   13   17 1
     2    7   17 ar
     3    7   10 ar
     4    8   10 ar
     5    8   11 ar
     6   14   11 2
     7   17   15 ar
     8   10    9 ar
     9   11   16 ar
    10    2    4 1
    11    2    1 1
    12   15    5 ar
    13    9    5 ar
    14    9    6 ar
    15   16    6 ar
    16   16   12 1
    17    4   12 1
    18   12    3 2
    19   18    1 1
    20   19    1 1
    21   20    1 1
    22   21    2 1
    23   22    2 1
    24   23    5 1
    25   24    6 1
    26   25    7 1
    27   26   13 1
    28   27   15 1
@<TRIPOS>SUBSTRUCTURE
     1 YZ9900    10 RESIDUE           4 A     YZ9900     0 ROOT
@<BUDE>CONF 2   
  -7.3379 0.0807 0.8908
  -6.2025 0.0522 1.9099
  -3.8898 0.0082 3.1595
  -4.9476 0.0515 1.2242
   1.1378 -0.0224 2.0581
  -1.3652 0.0029 2.0156
   1.2279 0.0241 -0.7260
  -1.1801 0.0494 -0.8266
  -0.0549 0.0018 1.3275
  -0.0097 0.0251 -0.0715
  -2.4109 0.0504 -0.1743
  -3.8203 0.0278 1.9667
   3.6113 0.0000 -0.6849
  -3.4236 0.0719 -0.8543
   2.3727 -0.0233 1.3985
  -2.4976 0.0261 1.3029
   2.4247 0.0000 -0.0002
  -7.2811 -0.8046 0.2607
  -8.2924 0.0946 1.4127
  -7.2482 0.9722 0.2737
  -6.2829 -0.8461 2.5185
  -6.2655 0.9306 2.5487
   1.1107 -0.0405 3.1376
  -1.3894 -0.0152 3.0952
   1.2577 0.0422 -1.8055
   3.4595 0.0000 -1.6430
   3.2788 -0.0422 1.9859
@<BUDE>CONF 3  
  -6.3233 -1.2167 2.7489
  -6.2025 0.0522 1.9099
  -3.8898 0.0082 3.1595
  -4.9476 0.0515 1.2242
   1.1378 -0.0224 2.0581
  -1.3652 0.0029 2.0156
   1.2279 0.0241 -0.7260
  -1.1801 0.0494 -0.8266
  -0.0549 0.0018 1.3275
  -0.0097 0.0251 -0.0715
  -2.4109 0.0504 -0.1743
  -3.8203 0.0278 1.9667
   3.6113 0.0000 -0.6849
  -3.4236 0.0719 -0.8543
   2.3727 -0.0233 1.3985
  -2.4976 0.0261 1.3029
   2.4247 0.0000 -0.0002
  -5.5207 -1.2430 3.4831
  -7.2837 -1.2226 3.2601
  -6.2515 -2.0875 2.1007
  -6.2600 0.9236 2.5587
  -7.0118 0.0859 1.1836
   1.1107 -0.0405 3.1376
  -1.3894 -0.0152 3.0952
   1.2577 0.0422 -1.8055
   3.4595 0.0000 -1.6430
   3.2788 -0.0422 1.9859
