@<TRIPOS>MOLECULE
ZINC01456998
   34    34     1     0     0
SMALL
USER_CHARGES
INVALID_CHARGES
 
@<TRIPOS>ATOM
      1 C1         -3.4084    0.0264   -0.5340 C.3       1 <1>        -0.6866  
      2 S1         -2.1701    0.9482   -1.4789 S.o2      1 <1>         2.6131  
      3 O1         -2.7018    2.2252   -1.8413 O.2       1 <1>        -0.9590  
      4 O2         -1.8330    0.2198   -2.6625 O.2       1 <1>        -0.9559  
      5 N1         -0.7357    1.1708   -0.5014 N.pl3     1 <1>        -1.1225  
      6 C2         -0.8409    1.7930    0.8262 C.3       1 <1>         0.1462  
      7 C3          0.0590    3.0559    0.8548 C.3       1 <1>        -0.1478  
      8 C4          0.0052    3.7192    2.2436 C.3       1 <1>        -0.1480  
      9 C5          0.4302    2.7182    3.3339 C.3       1 <1>         0.1459  
     10 C6         -0.4633    1.4642    3.3062 C.3       1 <1>        -0.1180  
     11 C7         -0.4124    0.7967    1.9194 C.3       1 <1>        -0.1181  
     12 N2          0.3533    3.3661    4.6511 N.pl3     1 <1>        -1.1224  
     13 S2          1.7965    3.5403    5.6255 S.o2      1 <1>         2.6132  
     14 O3          1.4873    4.2884    6.8043 O.2       1 <1>        -0.9589  
     15 O4          2.2806    2.2463    5.9943 O.2       1 <1>        -0.9559  
     16 C8          3.0652    4.4110    4.6724 C.3       1 <1>        -0.6870  
     17 H1         -4.2949   -0.1222   -1.1472 H         1 <1>         0.1268  
     18 H2         -2.9991   -0.9398   -0.2468 H         1 <1>         0.1299  
     19 H3         -3.6745    0.5882    0.3588 H         1 <1>         0.1290  
     20 H4          0.1638    0.8717   -0.8498 H         1 <1>         0.4413  
     21 H5         -1.8770    2.0760    0.9993 H         1 <1>         0.0955  
     22 H6          1.0840    2.7761    0.6211 H         1 <1>         0.0795  
     23 H7         -0.2767    3.7579    0.0944 H         1 <1>         0.0718  
     24 H8         -1.0063    4.0654    2.4450 H         1 <1>         0.0718  
     25 H9          0.6655    4.5837    2.2683 H         1 <1>         0.0797  
     26 H10         1.4599    2.4161    3.1550 H         1 <1>         0.0955  
     27 H11        -1.4887    1.7447    3.5376 H         1 <1>         0.0813  
     28 H12        -0.1276    0.7651    4.0692 H         1 <1>         0.0755  
     29 H13         0.6002    0.4526    1.7199 H         1 <1>         0.0813  
     30 H14        -1.0703   -0.0696    1.8972 H         1 <1>         0.0754  
     31 H15        -0.5324    3.7105    4.9932 H         1 <1>         0.4413  
     32 H16         2.7005    5.4000    4.4030 H         1 <1>         0.1298  
     33 H17         3.9669    4.5075    5.2734 H         1 <1>         0.1291  
     34 H18         3.2893    3.8479    3.7688 H         1 <1>         0.1269  
@<TRIPOS>BOND
     1    1    2 1    
     2    1   17 1    
     3    1   18 1    
     4    1   19 1    
     5    2    3 2    
     6    2    4 2    
     7    2    5 1    
     8    5    6 1    
     9    5   20 1    
    10    6   11 1    
    11    6    7 1    
    12    6   21 1    
    13    7    8 1    
    14    7   22 1    
    15    7   23 1    
    16    8    9 1    
    17    8   24 1    
    18    8   25 1    
    19    9   10 1    
    20    9   12 1    
    21    9   26 1    
    22   10   11 1    
    23   10   27 1    
    24   10   28 1    
    25   11   29 1    
    26   11   30 1    
    27   12   13 1    
    28   12   31 1    
    29   13   14 2    
    30   13   15 2    
    31   13   16 1    
    32   16   32 1    
    33   16   33 1    
    34   16   34 1    
@<BUDE>CONF 2
 -3.4084 0.0264 -0.5340
 -2.1701 0.9482 -1.4789
 -2.7018 2.2252 -1.8413
 -1.8330 0.2198 -2.6625
 -0.7357 1.1708 -0.5014
 -0.8409 1.7930 0.8262
 0.0590 3.0559 0.8548
 0.0052 3.7192 2.2436
 0.4302 2.7182 3.3339
 -0.4633 1.4642 3.3062
 -0.4124 0.7967 1.9194
 0.3533 3.3661 4.6511
 1.7965 3.5403 5.6255
 1.4873 4.2884 6.8043
 2.2806 2.2463 5.9943
 3.0652 4.4110 4.6724
 -4.2949 -0.1222 -1.1472
 -2.9991 -0.9398 -0.2468
 -3.6745 0.5882 0.3588
 0.1638 0.8717 -0.8498
 -1.8770 2.0760 0.9993
 1.0840 2.7761 0.6211
 -0.2767 3.7579 0.0944
 -1.0063 4.0654 2.4450
 0.6655 4.5837 2.2683
 1.4599 2.4161 3.1550
 -1.4887 1.7447 3.5376
 -0.1276 0.7651 4.0692
 0.6002 0.4526 1.7199
 -1.0703 -0.0696 1.8972
 -0.5324 3.7105 4.9932
 2.7005 5.4000 4.4030
 3.9669 4.5075 5.2734
 3.2893 3.8479 3.7688
@<BUDE>CONF 3   
 -3.4084 0.0264 -0.5340
 -2.1701 0.9482 -1.4789
 -2.7018 2.2252 -1.8413
 -1.8330 0.2198 -2.6625
 -0.7357 1.1708 -0.5014
 0.4265 1.8813 -1.0537
 1.6551 0.9359 -1.0046
 2.9056 1.6560 -1.5425
 3.1714 2.9431 -0.7397
 1.9520 3.8823 -0.7885
 0.6988 3.1668 -0.2508
 4.3566 3.6229 -1.2817
 5.7634 3.8677 -0.2699
 6.8128 4.4504 -1.0471
 5.4264 4.7426 0.8098
 6.3138 2.2755 0.3918
 -4.2949 -0.1222 -1.1472
 -2.9991 -0.9398 -0.2468
 -3.6745 0.5882 0.3588
 -0.7070 0.8110 0.4419
 0.2131 2.1532 -2.0852
 1.8273 0.6183 0.0216
 1.4533 0.0474 -1.5992
 2.7606 1.9074 -2.5910
 3.7709 1.0002 -1.4725
 3.3664 2.6791 0.2976
 1.7784 4.1977 -1.8152
 2.1572 4.7711 -0.1957
 0.8468 2.9155 0.7973
 -0.1650 3.8250 -0.3180
 4.3585 3.9484 -2.2378
 6.5817 1.6150 -0.4302
 7.1803 2.4293 1.0315
 5.5096 1.8267 0.9711
@<BUDE>CONF 4  
 -3.4084 0.0264 -0.5340
 -2.1701 0.9482 -1.4789
 -2.7018 2.2252 -1.8413
 -1.8330 0.2198 -2.6625
 -0.7357 1.1708 -0.5014
 -0.8409 1.7930 0.8262
 0.0590 3.0559 0.8548
 0.0052 3.7192 2.2436
 0.4302 2.7182 3.3339
 -0.4633 1.4642 3.3062
 -0.4124 0.7967 1.9194
 0.3533 3.3661 4.6511
 -1.1814 3.9628 5.2438
 -1.6799 4.9626 4.3512
 -2.1148 2.8821 5.3198
 -0.9533 4.6811 6.8895
 -4.2949 -0.1222 -1.1472
 -2.9991 -0.9398 -0.2468
 -3.6745 0.5882 0.3588
 0.1638 0.8717 -0.8498
 -1.8770 2.0760 0.9993
 1.0840 2.7761 0.6211
 -0.2767 3.7579 0.0944
 -1.0063 4.0654 2.4450
 0.6655 4.5837 2.2683
 1.4599 2.4161 3.1550
 -1.4887 1.7447 3.5376
 -0.1276 0.7651 4.0692
 0.6002 0.4526 1.7199
 -1.0703 -0.0696 1.8972
 1.1862 3.4666 5.2134
 -0.2525 5.5111 6.8282
 -1.9098 5.0400 7.2635
 -0.5606 3.9231 7.5640
@<BUDE>CONF 5  
 -3.4084 0.0264 -0.5340
 -2.1701 0.9482 -1.4789
 -2.7018 2.2252 -1.8413
 -1.8330 0.2198 -2.6625
 -0.7357 1.1708 -0.5014
 0.4265 1.8813 -1.0537
 1.6551 0.9359 -1.0046
 2.9056 1.6560 -1.5425
 3.1714 2.9431 -0.7397
 1.9520 3.8823 -0.7885
 0.6988 3.1668 -0.2508
 4.3566 3.6229 -1.2817
 4.3599 4.1868 -2.9383
 4.1815 3.0751 -3.8198
 3.2931 5.1205 -3.1253
 5.9396 4.9947 -3.2964
 -4.2949 -0.1222 -1.1472
 -2.9991 -0.9398 -0.2468
 -3.6745 0.5882 0.3588
 -0.7070 0.8110 0.4419
 0.2131 2.1532 -2.0852
 1.8273 0.6183 0.0216
 1.4533 0.0474 -1.5992
 2.7606 1.9074 -2.5910
 3.7709 1.0002 -1.4725
 3.3664 2.6791 0.2976
 1.7784 4.1977 -1.8152
 2.1572 4.7711 -0.1957
 0.8468 2.9155 0.7973
 -0.1650 3.8250 -0.3180
 5.1685 3.7642 -0.6978
 6.7495 4.2800 -3.1659
 5.9366 5.3571 -4.3222
 6.0806 5.8317 -2.6157
@<BUDE>CONF 6  
 -3.4084 0.0264 -0.5340
 -2.1701 0.9482 -1.4789
 -2.7018 2.2252 -1.8413
 -1.8330 0.2198 -2.6625
 -0.7357 1.1708 -0.5014
 0.4265 1.8813 -1.0537
 -0.0041 3.3249 -1.4228
 1.1786 4.0942 -2.0400
 1.7176 3.3497 -3.2758
 2.1456 1.9164 -2.9097
 0.9659 1.1426 -2.2926
 2.8562 4.0910 -3.8366
 2.7721 4.7203 -5.4674
 3.9481 5.4856 -5.7434
 2.6814 3.6337 -6.3926
 1.3114 5.7766 -5.6307
 -4.2949 -0.1222 -1.1472
 -2.9991 -0.9398 -0.2468
 -3.6745 0.5882 0.3588
 -0.7070 0.8110 0.4419
 1.2090 1.9130 -0.2987
 -0.8279 3.2872 -2.1324
 -0.3559 3.8380 -0.5303
 1.9734 4.1956 -1.3041
 0.8613 5.0939 -2.3293
 0.9328 3.2976 -4.0275
 2.9678 1.9543 -2.1982
 2.4997 1.4064 -3.8031
 0.1722 1.0436 -3.0301
 1.2837 0.1419 -2.0072
 3.6867 4.2368 -3.2805
 1.3875 6.6096 -4.9351
 1.2517 6.1571 -6.6482
 0.4184 5.1967 -5.4067
@<BUDE>CONF 7  
 -3.4084 0.0264 -0.5340
 -2.1701 0.9482 -1.4789
 -2.7018 2.2252 -1.8413
 -1.8330 0.2198 -2.6625
 -0.7357 1.1708 -0.5014
 -0.0566 0.0052 0.0824
 -0.1123 0.0954 1.6233
 0.6697 1.3254 2.1201
 2.1286 1.2684 1.6303
 2.1887 1.1713 0.0945
 1.4048 -0.0589 -0.3989
 2.8048 0.1132 2.2378
 4.1553 0.3617 3.3227
 4.5713 -0.8964 3.8604
 5.2395 0.9561 2.6045
 3.6505 1.4582 4.6713
 -4.2949 -0.1222 -1.1472
 -2.9991 -0.9398 -0.2468
 -3.6745 0.5882 0.3588
 -0.3751 2.1001 -0.3387
 -0.5700 -0.8977 -0.2411
 -1.1497 0.1660 1.9433
 0.3084 -0.8111 2.0535
 0.6543 1.3544 3.2075
 0.2004 2.2365 1.7547
 2.6423 2.1752 1.9423
 3.2262 1.0931 -0.2233
 1.7730 2.0776 -0.3408
 1.4277 -0.0910 -1.4860
 1.8681 -0.9708 -0.0277
 2.4897 -0.8233 2.0288
 2.8339 0.9993 5.2247
 4.4939 1.6234 5.3386
 3.3208 2.4100 4.2599
@<BUDE>CONF 8  
 -3.4084 0.0264 -0.5340
 -2.1701 0.9482 -1.4789
 -2.7018 2.2252 -1.8413
 -1.8330 0.2198 -2.6625
 -0.7357 1.1708 -0.5014
 0.4265 1.8813 -1.0537
 1.6323 0.9187 -1.1243
 2.0497 0.4726 0.2893
 2.3804 1.6968 1.1632
 1.1830 2.6628 1.2307
 0.7676 3.1058 -0.1845
 3.5575 2.3863 0.6157
 5.0308 2.4813 1.5553
 6.0545 3.1022 0.7734
 4.7944 3.2555 2.7341
 5.5554 0.8133 2.0230
 -4.2949 -0.1222 -1.1472
 -2.9991 -0.9398 -0.2468
 -3.6745 0.5882 0.3588
 -0.7070 0.8110 0.4419
 0.1836 2.2232 -2.0575
 1.3650 0.0485 -1.7200
 2.4641 1.4175 -1.6173
 2.9228 -0.1732 0.2265
 1.2458 -0.0961 0.7520
 2.6130 1.3595 2.1711
 1.4545 3.5359 1.8202
 0.3495 2.1701 1.7269
 -0.1008 3.7580 -0.1197
 1.5735 3.6679 -0.6518
 3.5154 2.8049 -0.3024
 5.7470 0.2290 1.1254
 6.4641 0.8732 2.6184
 4.7699 0.3368 2.6058
@<BUDE>CONF 9  
 -3.4084 0.0264 -0.5340
 -2.1701 0.9482 -1.4789
 -2.7018 2.2252 -1.8413
 -1.8330 0.2198 -2.6625
 -0.7357 1.1708 -0.5014
 -0.0566 0.0052 0.0824
 -0.1123 0.0954 1.6233
 0.6697 1.3254 2.1201
 2.1286 1.2684 1.6303
 2.1887 1.1713 0.0945
 1.4048 -0.0589 -0.3989
 2.8048 0.1132 2.2378
 2.5916 -0.2287 3.9408
 1.2270 -0.5772 4.1889
 3.4386 -1.3176 4.3172
 3.0265 1.2377 4.9085
 -4.2949 -0.1222 -1.1472
 -2.9991 -0.9398 -0.2468
 -3.6745 0.5882 0.3588
 -0.3751 2.1001 -0.3387
 -0.5700 -0.8977 -0.2411
 -1.1497 0.1660 1.9433
 0.3084 -0.8111 2.0535
 0.6543 1.3544 3.2075
 0.2004 2.2365 1.7547
 2.6423 2.1752 1.9423
 3.2262 1.0931 -0.2233
 1.7730 2.0776 -0.3408
 1.4277 -0.0910 -1.4860
 1.8681 -0.9708 -0.0277
 3.3922 -0.4826 1.6721
 2.3732 2.0620 4.6302
 2.9067 1.0210 5.9679
 4.0606 1.5102 4.7080
@<BUDE>CONF 10  
 -3.4084 0.0264 -0.5340
 -2.1701 0.9482 -1.4789
 -2.7018 2.2252 -1.8413
 -1.8330 0.2198 -2.6625
 -0.7357 1.1708 -0.5014
 0.4265 1.8813 -1.0537
 1.6323 0.9187 -1.1243
 2.0497 0.4726 0.2893
 2.3804 1.6968 1.1632
 1.1830 2.6628 1.2307
 0.7676 3.1058 -0.1845
 3.5575 2.3863 0.6157
 4.9494 1.4616 0.0960
 4.5898 0.6498 -1.0249
 6.0010 2.3550 -0.2792
 5.5106 0.4038 1.4533
 -4.2949 -0.1222 -1.1472
 -2.9991 -0.9398 -0.2468
 -3.6745 0.5882 0.3588
 -0.7070 0.8110 0.4419
 0.1836 2.2232 -2.0575
 1.3650 0.0485 -1.7200
 2.4641 1.4175 -1.6173
 2.9228 -0.1732 0.2265
 1.2458 -0.0961 0.7520
 2.6130 1.3595 2.1711
 1.4545 3.5359 1.8202
 0.3495 2.1701 1.7269
 -0.1008 3.7580 -0.1197
 1.5735 3.6679 -0.6518
 3.5623 3.3934 0.5397
 4.7140 -0.2838 1.7295
 6.3841 -0.1612 1.1345
 5.7705 1.0218 2.3103
@<BUDE>CONF 10 
 -3.4084 0.0264 -0.5340
 -2.1701 0.9482 -1.4789
 -2.7018 2.2252 -1.8413
 -1.8330 0.2198 -2.6625
 -0.7357 1.1708 -0.5014
 0.4265 1.8813 -1.0537
 -0.0041 3.3249 -1.4228
 1.1786 4.0942 -2.0400
 1.7176 3.3497 -3.2758
 2.1456 1.9164 -2.9097
 0.9659 1.1426 -2.2926
 2.8562 4.0910 -3.8366
 4.2951 4.3436 -2.8731
 3.9577 5.0890 -1.7003
 4.8419 3.0779 -2.4937
 5.5158 5.2628 -3.8432
 -4.2949 -0.1222 -1.1472
 -2.9991 -0.9398 -0.2468
 -3.6745 0.5882 0.3588
 -0.7070 0.8110 0.4419
 1.2090 1.9130 -0.2987
 -0.8279 3.2872 -2.1324
 -0.3559 3.8380 -0.5303
 1.9734 4.1956 -1.3041
 0.8613 5.0939 -2.3293
 0.9328 3.2976 -4.0275
 2.9678 1.9543 -2.1982
 2.4997 1.4064 -3.8031
 0.1722 1.0436 -3.0301
 1.2837 0.1419 -2.0072
 2.8077 4.4542 -4.7778
 5.1033 6.2306 -4.1207
 6.4154 5.4083 -3.2488
 5.7611 4.7012 -4.7422
@<BUDE>CONF 11 
 -3.4084 0.0264 -0.5340
 -2.1701 0.9482 -1.4789
 -2.7018 2.2252 -1.8413
 -1.8330 0.2198 -2.6625
 -0.7357 1.1708 -0.5014
 0.4265 1.8813 -1.0537
 1.3189 0.8328 -1.6536
 2.7845 1.3054 -1.6652
 3.3231 1.4209 -0.2270
 2.1956 1.7950 0.7530
 1.1437 2.6757 0.0535
 4.3892 2.4320 -0.1826
 6.0668 1.9340 -0.1780
 6.9064 3.0900 -0.2376
 6.3433 1.2042 1.0203
 6.3862 0.8803 -1.6146
 -4.2949 -0.1222 -1.1472
 -2.9991 -0.9398 -0.2468
 -3.6745 0.5882 0.3588
 -0.7070 0.8110 0.4419
 0.0820 2.5778 -1.8150
 1.2334 -0.0845 -1.0750
 0.9894 0.6190 -2.6682
 2.8530 2.2740 -2.1557
 3.3972 0.6026 -2.2260
 3.7409 0.4621 0.0724
 2.6155 2.3332 1.6002
 1.7302 0.8871 1.1310
 0.4144 3.0186 0.7844
 1.6194 3.5525 -0.3807
 4.1529 3.4135 -0.1547
 6.1874 1.4405 -2.5258
 7.4259 0.5598 -1.6045
 5.7368 0.0082 -1.5754
@<BUDE>CONF 12 
 -3.4084 0.0264 -0.5340
 -2.1701 0.9482 -1.4789
 -2.7018 2.2252 -1.8413
 -1.8330 0.2198 -2.6625
 -0.7357 1.1708 -0.5014
 -0.8409 1.7930 0.8262
 0.1189 2.9265 0.9349
 1.4761 2.4258 1.4630
 1.3459 1.9635 2.9262
 -0.0591 1.3952 3.1993
 -0.6313 0.7389 1.9291
 1.6180 3.0952 3.8239
 2.7143 2.8969 5.1734
 4.0330 2.6434 4.6819
 2.7196 4.0901 5.9615
 2.1703 1.5027 6.1915
 -4.2949 -0.1222 -1.1472
 -2.9991 -0.9398 -0.2468
 -3.6745 0.5882 0.3588
 0.1638 0.8717 -0.8498
 -1.8360 2.2188 0.9356
 0.2519 3.3851 -0.0426
 -0.2850 3.6820 1.6055
 2.2108 3.2257 1.4006
 1.8303 1.5982 0.8518
 2.0802 1.1840 3.1176
 -0.7183 2.1980 3.5226
 -0.0026 0.6646 4.0035
 0.0571 -0.0252 1.5745
 -1.5802 0.2560 2.1530
 1.1720 3.9868 3.6614
 2.1786 0.5934 5.5942
 2.8442 1.3878 7.0378
 1.1614 1.6905 6.5532
@<BUDE>CONF 13 
 -3.4084 0.0264 -0.5340
 -2.1701 0.9482 -1.4789
 -2.7018 2.2252 -1.8413
 -1.8330 0.2198 -2.6625
 -0.7357 1.1708 -0.5014
 -0.8409 1.7930 0.8262
 -0.6112 3.2634 0.6250
 -0.0542 3.9091 1.9073
 1.3641 3.3853 2.2002
 1.5303 1.9396 1.6963
 0.1939 1.1799 1.7878
 1.6220 3.4508 3.6458
 2.5719 4.7640 4.3060
 2.5934 4.6654 5.7324
 3.9076 4.6855 3.8015
 1.8344 6.3440 3.8204
 -4.2949 -0.1222 -1.1472
 -2.9991 -0.9398 -0.2468
 -3.6745 0.5882 0.3588
 0.1638 0.8717 -0.8498
 -1.8372 1.6077 1.2220
 0.0908 3.4079 -0.1936
 -1.5497 3.7385 0.3472
 -0.7058 3.6769 2.7469
 -0.0249 4.9910 1.7961
 2.0873 4.0175 1.6893
 2.2803 1.4301 2.2976
 1.8810 1.9545 0.6665
 0.3529 0.1347 1.5313
 -0.1897 1.2198 2.8052
 1.2510 2.7378 4.2574
 0.8226 6.4078 4.2152
 2.4324 7.1605 4.2196
 1.8056 6.4117 2.7348
@<BUDE>CONF 14 
 -3.4084 0.0264 -0.5340
 -2.1701 0.9482 -1.4789
 -2.7018 2.2252 -1.8413
 -1.8330 0.2198 -2.6625
 -0.7357 1.1708 -0.5014
 0.4265 1.8813 -1.0537
 1.6539 1.0536 -0.8910
 2.3243 1.3562 0.4620
 2.8896 2.7886 0.4732
 2.0362 3.7224 -0.4052
 0.5644 3.2695 -0.4016
 4.2788 2.7712 -0.0068
 5.5235 3.6158 0.8875
 5.6918 2.9993 2.1668
 6.7546 3.5551 0.1625
 5.0375 5.3452 1.1092
 -4.2949 -0.1222 -1.1472
 -2.9991 -0.9398 -0.2468
 -3.6745 0.5882 0.3588
 -0.7070 0.8110 0.4419
 0.2812 2.0118 -2.1239
 1.3907 -0.0007 -0.9427
 2.3455 1.2650 -1.7039
 3.1311 0.6478 0.6373
 1.6015 1.2457 1.2678
 2.8794 3.1651 1.4939
 2.4180 3.7106 -1.4239
 2.1140 4.7409 -0.0306
 0.2010 3.2268 0.6229
 -0.0486 3.9864 -0.9440
 4.5143 2.2716 -0.8524
 4.1073 5.3905 1.6717
 5.8174 5.8735 1.6535
 4.8960 5.8092 0.1353
