@<TRIPOS>MOLECULE
ZINC02096229_0
   36    35     1     0     0
SMALL
USER_CHARGES
INVALID_CHARGES
 
@<TRIPOS>ATOM
      1 C1          0.0006    0.0011    0.0000 C.3       1 <1>        -0.6739  
      2 S1          0.0000    0.0000    1.8099 S.o2      1 <1>         2.6162  
      3 O1          0.6741    1.1675    2.2866 O.2       1 <1>        -0.9566  
      4 O2          0.6746   -1.1670    2.2870 O.2       1 <1>        -0.9591  
      5 N1         -1.6497    0.0009    2.3938 N.pl3     1 <1>        -1.1210  
      6 C2         -1.9173   -0.0154    3.8391 C.3       1 <1>         0.1110  
      7 C3         -2.0725   -1.4603    4.3110 C.3       1 <1>        -0.1273  
      8 C4         -2.3506   -1.4773    5.8134 C.3       1 <1>        -0.1200  
      9 C5         -2.5059   -2.9223    6.2854 C.3       1 <1>        -0.1200  
     10 C6         -2.7840   -2.9393    7.7879 C.3       1 <1>        -0.1273  
     11 C7         -2.9392   -4.3842    8.2599 C.3       1 <1>         0.1110  
     12 N2         -3.2068   -4.4006    9.7052 N.pl3     1 <1>        -1.1210  
     13 S2         -1.8806   -4.5399   10.8384 S.o2      1 <1>         2.6161  
     14 O3         -1.1901   -5.7717   10.6136 O.2       1 <1>        -0.9591  
     15 O4         -0.9788   -3.4459   10.6522 O.2       1 <1>        -0.9566  
     16 C8         -2.5271   -4.5092   12.5287 C.3       1 <1>        -0.6739  
     17 H1          1.0266   -0.0122   -0.3616 H         1 <1>         0.1263  
     18 H2         -0.5238   -0.8804   -0.3627 H         1 <1>         0.1286  
     19 H3         -0.5005    0.8964   -0.3616 H         1 <1>         0.1300  
     20 H4         -2.4173    0.0128    1.7375 H         1 <1>         0.4190  
     21 H5         -1.0881    0.4520    4.3661 H         1 <1>         0.0640  
     22 H6         -2.8337    0.5341    4.0438 H         1 <1>         0.0819  
     23 H7         -2.9014   -1.9266    3.7828 H         1 <1>         0.0741  
     24 H8         -1.1558   -2.0089    4.1051 H         1 <1>         0.0711  
     25 H9         -1.5213   -1.0100    6.3405 H         1 <1>         0.0667  
     26 H10        -3.2670   -0.9277    6.0182 H         1 <1>         0.0690  
     27 H11        -3.3349   -3.3886    5.7573 H         1 <1>         0.0690  
     28 H12        -1.5892   -3.4709    6.0794 H         1 <1>         0.0667  
     29 H13        -1.9547   -2.4720    8.3149 H         1 <1>         0.0711  
     30 H14        -3.7004   -2.3897    7.9926 H         1 <1>         0.0741  
     31 H15        -3.7682   -4.8505    7.7316 H         1 <1>         0.0819  
     32 H16        -2.0225   -4.9328    8.0539 H         1 <1>         0.0640  
     33 H17        -4.1559   -4.3315   10.0435 H         1 <1>         0.4190  
     34 H18        -3.2035   -5.3492   12.6730 H         1 <1>         0.1286  
     35 H19        -1.7015   -4.5824   13.2335 H         1 <1>         0.1300  
     36 H20        -3.0644   -3.5776   12.6940 H         1 <1>         0.1263  
@<TRIPOS>BOND
     1    1    2 1    
     2    1   17 1    
     3    1   18 1    
     4    1   19 1    
     5    2    3 2    
     6    2    4 2    
     7    2    5 1    
     8    5    6 1    
     9    5   20 1    
    10    6    7 1    
    11    6   21 1    
    12    6   22 1    
    13    7    8 1    
    14    7   23 1    
    15    7   24 1    
    16    8    9 1    
    17    8   25 1    
    18    8   26 1    
    19    9   10 1    
    20    9   27 1    
    21    9   28 1    
    22   10   11 1    
    23   10   29 1    
    24   10   30 1    
    25   11   12 1    
    26   11   31 1    
    27   11   32 1    
    28   12   13 1    
    29   12   33 1    
    30   13   14 2    
    31   13   15 2    
    32   13   16 1    
    33   16   34 1    
    34   16   35 1    
    35   16   36 1    
@<TRIPOS>SUBSTRUCTURE
     1 ****        1 TEMP              0 ****  ****    0 ROOT
@<BUDE>CONF  1 
 0.0006 0.0011 0.0000
 0.0000 0.0000 1.8099
 0.6741 1.1675 2.2866
 0.6746 -1.1670 2.2870
 -1.6497 0.0009 2.3938
 -1.9173 -0.0154 3.8391
 -2.0725 -1.4603 4.3110
 -2.3506 -1.4773 5.8134
 -2.5059 -2.9223 6.2854
 -2.7840 -2.9393 7.7879
 -2.9392 -4.3842 8.2599
 -3.2068 -4.4006 9.7052
 -1.8806 -4.5399 10.8384
 -1.1901 -5.7717 10.6136
 -0.9788 -3.4459 10.6522
 -2.5271 -4.5092 12.5287
 1.0266 -0.0122 -0.3616
 -0.5238 -0.8804 -0.3627
 -0.5005 0.8964 -0.3616
 -2.4173 0.0128 1.7375
 -1.0881 0.4520 4.3661
 -2.8337 0.5341 4.0438
 -2.9014 -1.9266 3.7828
 -1.1558 -2.0089 4.1051
 -1.5213 -1.0100 6.3405
 -3.2670 -0.9277 6.0182
 -3.3349 -3.3886 5.7573
 -1.5892 -3.4709 6.0794
 -1.9547 -2.4720 8.3149
 -3.7004 -2.3897 7.9926
 -3.7682 -4.8505 7.7316
 -2.0225 -4.9328 8.0539
 -4.1559 -4.3315 10.0435
 -3.2035 -5.3492 12.6730
 -1.7015 -4.5824 13.2335
 -3.0644 -3.5776 12.6940
@<BUDE>CONF  2  
 0.0006 0.0011 0.0000
 0.0000 0.0000 1.8099
 0.6741 1.1675 2.2866
 0.6746 -1.1670 2.2870
 -1.6497 0.0009 2.3938
 -1.9173 -0.0154 3.8391
 -2.0584 1.4190 4.3462
 -2.3366 1.4020 5.8486
 -2.4777 2.8364 6.3558
 -2.7558 2.8194 7.8582
 -2.8970 4.2538 8.3654
 -3.1645 4.2375 9.8108
 -4.8142 4.2384 10.3946
 -5.4768 5.4238 9.9467
 -5.4984 3.0888 9.8894
 -4.8127 4.1940 12.2041
 1.0266 -0.0122 -0.3616
 -0.5238 -0.8804 -0.3627
 -0.5005 0.8964 -0.3616
 -2.4173 0.0128 1.7375
 -2.8390 -0.5609 4.0304
 -1.0927 -0.5036 4.3544
 -1.1365 1.9634 4.1536
 -2.8828 1.9061 3.8297
 -3.2584 0.8566 6.0400
 -1.5120 0.9138 6.3639
 -1.5556 3.3808 6.1633
 -3.3020 3.3236 5.8392
 -3.6777 2.2740 8.0496
 -1.9313 2.3312 8.3736
 -1.9750 4.7982 8.1728
 -3.7213 4.7410 7.8488
 -2.3961 4.2258 10.4661
 -4.3028 5.0754 12.5874
 -5.8383 4.1811 12.5668
 -4.2959 3.2988 12.5438
@<BUDE>CONF  3  
 0.0006 0.0011 0.0000
 0.0000 0.0000 1.8099
 0.6741 1.1675 2.2866
 0.6746 -1.1670 2.2870
 -1.6497 0.0009 2.3938
 -1.9173 -0.0154 3.8391
 -2.0584 1.4190 4.3462
 -2.3366 1.4020 5.8486
 -2.4777 2.8364 6.3558
 -2.7558 2.8194 7.8582
 -2.8970 4.2538 8.3654
 -1.6449 4.9843 8.1214
 -0.4086 5.0381 9.3587
 -0.9360 5.6638 10.5314
 0.0076 3.7068 9.6737
 1.0088 5.9870 8.7530
 1.0266 -0.0122 -0.3616
 -0.5238 -0.8804 -0.3627
 -0.5005 0.8964 -0.3616
 -2.4173 0.0128 1.7375
 -2.8390 -0.5609 4.0304
 -1.0927 -0.5036 4.3544
 -1.1365 1.9634 4.1536
 -2.8828 1.9061 3.8297
 -3.2584 0.8566 6.0400
 -1.5120 0.9138 6.3639
 -1.5556 3.3808 6.1633
 -3.3020 3.3236 5.8392
 -3.6777 2.2740 8.0496
 -1.9313 2.3312 8.3736
 -3.7127 4.7452 7.8394
 -3.1082 4.2413 9.4327
 -1.4988 5.4549 7.2397
 0.6935 7.0032 8.5255
 1.7828 6.0092 9.5172
 1.4004 5.5180 7.8527
@<BUDE>CONF  4  
 0.0006 0.0011 0.0000
 0.0000 0.0000 1.8099
 0.6741 1.1675 2.2866
 0.6746 -1.1670 2.2870
 -1.6497 0.0009 2.3938
 -1.9173 -0.0154 3.8391
 -2.0725 -1.4603 4.3110
 -2.3506 -1.4773 5.8134
 -2.5059 -2.9223 6.2854
 -2.7840 -2.9393 7.7879
 -2.9392 -4.3842 8.2599
 -4.0705 -5.0088 7.5592
 -5.6685 -4.9714 8.2716
 -5.6435 -5.6467 9.5319
 -6.0714 -3.6131 8.4655
 -6.8400 -5.7975 7.1666
 1.0266 -0.0122 -0.3616
 -0.5238 -0.8804 -0.3627
 -0.5005 0.8964 -0.3616
 -2.4173 0.0128 1.7375
 -1.0881 0.4520 4.3661
 -2.8337 0.5341 4.0438
 -2.9014 -1.9266 3.7828
 -1.1558 -2.0089 4.1051
 -1.5213 -1.0100 6.3405
 -3.2670 -0.9277 6.0182
 -3.3349 -3.3886 5.7573
 -1.5892 -3.4709 6.0794
 -1.9547 -2.4720 8.3149
 -3.7004 -2.3897 7.9926
 -2.0274 -4.9362 8.0418
 -3.1241 -4.3970 9.3320
 -3.9250 -5.4593 6.6670
 -6.5394 -6.8342 7.0298
 -7.8359 -5.7626 7.6033
 -6.8477 -5.2914 6.2034
@<BUDE>CONF  5  
 0.0006 0.0011 0.0000
 0.0000 0.0000 1.8099
 0.6741 1.1675 2.2866
 0.6746 -1.1670 2.2870
 -1.6497 0.0009 2.3938
 -1.9173 -0.0154 3.8391
 -2.0725 -1.4603 4.3110
 -3.2485 -2.1096 3.5827
 -3.4037 -3.5545 4.0547
 -4.5797 -4.2037 3.3264
 -4.7349 -5.6487 3.7984
 -5.8662 -6.2732 3.0978
 -5.5946 -7.1551 1.6109
 -5.0405 -6.2746 0.6299
 -4.6850 -8.2311 1.8552
 -7.1672 -7.8184 1.0082
 1.0266 -0.0122 -0.3616
 -0.5238 -0.8804 -0.3627
 -0.5005 0.8964 -0.3616
 -2.4173 0.0128 1.7375
 -1.0881 0.4520 4.3661
 -2.8337 0.5341 4.0438
 -1.1608 -2.0123 4.0930
 -2.2574 -1.4731 5.3831
 -4.1595 -1.5562 3.8010
 -3.0628 -2.0954 2.5108
 -2.4919 -4.1065 3.8366
 -3.5885 -3.5673 5.1269
 -5.4908 -3.6504 3.5447
 -4.3941 -4.1895 2.2545
 -3.8231 -6.2007 3.5804
 -4.9198 -5.6614 4.8706
 -6.7998 -6.1930 3.4749
 -7.8542 -6.9981 0.8109
 -6.9964 -8.3779 0.0909
 -7.5947 -8.4771 1.7613
@<BUDE>CONF  6  
 0.0006 0.0011 0.0000
 0.0000 0.0000 1.8099
 0.6741 1.1675 2.2866
 0.6746 -1.1670 2.2870
 -1.6497 0.0009 2.3938
 -1.9173 -0.0154 3.8391
 -2.0584 1.4190 4.3462
 -3.2279 2.0973 3.6342
 -3.3690 3.5317 4.1414
 -4.5385 4.2100 3.4293
 -4.6797 5.6444 3.9365
 -5.8047 6.2970 3.2515
 -5.5244 7.2122 1.7865
 -4.6314 8.2939 2.0648
 -4.9464 6.3587 0.7954
 -7.0969 7.8686 1.1762
 1.0266 -0.0122 -0.3616
 -0.5238 -0.8804 -0.3627
 -0.5005 0.8964 -0.3616
 -2.4173 0.0128 1.7375
 -2.8390 -0.5609 4.0304
 -1.0927 -0.5036 4.3544
 -2.2432 1.4073 5.4182
 -1.1412 1.9672 4.1416
 -3.0422 2.1076 2.5621
 -4.1443 1.5476 3.8388
 -3.5540 3.5201 5.2134
 -2.4518 4.0799 3.9368
 -4.3528 4.2203 2.3572
 -5.4549 3.6604 3.6339
 -4.8645 5.6328 5.0085
 -3.7624 6.1927 3.7318
 -6.7390 6.2168 3.6267
 -7.5295 8.5277 1.9260
 -6.9244 8.4264 0.2582
 -7.7803 7.0454 0.9782
@<BUDE>CONF  7  
 0.0006 0.0011 0.0000
 0.0000 0.0000 1.8099
 0.6741 1.1675 2.2866
 0.6746 -1.1670 2.2870
 -1.6497 0.0009 2.3938
 -1.9173 -0.0154 3.8391
 -2.0725 -1.4603 4.3110
 -3.2485 -2.1096 3.5827
 -3.4037 -3.5545 4.0547
 -4.5797 -4.2037 3.3264
 -4.7349 -5.6487 3.7984
 -3.5097 -6.3990 3.4876
 -3.3792 -7.2734 1.9774
 -4.4043 -8.2684 1.9135
 -3.5294 -6.3622 0.8856
 -1.7569 -8.0701 1.8809
 1.0266 -0.0122 -0.3616
 -0.5238 -0.8804 -0.3627
 -0.5005 0.8964 -0.3616
 -2.4173 0.0128 1.7375
 -1.0881 0.4520 4.3661
 -2.8337 0.5341 4.0438
 -1.1608 -2.0123 4.0930
 -2.2574 -1.4731 5.3831
 -4.1595 -1.5562 3.8010
 -3.0628 -2.0954 2.5108
 -2.4919 -4.1065 3.8366
 -3.5885 -3.5673 5.1269
 -5.4908 -3.6504 3.5447
 -4.3941 -4.1895 2.2545
 -4.9065 -5.6621 4.8727
 -5.5805 -6.1069 3.2897
 -2.7438 -6.4097 4.1459
 -1.6488 -8.7723 2.7050
 -1.6707 -8.6027 0.9361
 -0.9776 -7.3134 1.9438
@<BUDE>CONF  8  
 0.0006 0.0011 0.0000
 0.0000 0.0000 1.8099
 0.6741 1.1675 2.2866
 0.6746 -1.1670 2.2870
 -1.6497 0.0009 2.3938
 -1.9173 -0.0154 3.8391
 -2.0584 1.4190 4.3462
 -3.2279 2.0973 3.6342
 -3.3690 3.5317 4.1414
 -4.5385 4.2100 3.4293
 -4.6797 5.6444 3.9365
 -3.4471 6.3902 3.6439
 -3.3080 7.2998 2.1555
 -3.4321 6.4117 1.0417
 -4.3447 8.2832 2.1001
 -1.6947 8.1186 2.0987
 1.0266 -0.0122 -0.3616
 -0.5238 -0.8804 -0.3627
 -0.5005 0.8964 -0.3616
 -2.4173 0.0128 1.7375
 -2.8390 -0.5609 4.0304
 -1.0927 -0.5036 4.3544
 -2.2432 1.4073 5.4182
 -1.1412 1.9672 4.1416
 -3.0422 2.1076 2.5621
 -4.1443 1.5476 3.8388
 -3.5540 3.5201 5.2134
 -2.4518 4.0799 3.9368
 -4.3528 4.2203 2.3572
 -5.4549 3.6604 3.6339
 -5.5206 6.1231 3.4392
 -4.8512 5.6333 5.0108
 -2.6811 6.3771 4.3021
 -0.9069 7.3687 2.1283
 -1.6134 8.6949 1.1795
 -1.5958 8.7834 2.9543
@<BUDE>CONF  9  
 0.0006 0.0011 0.0000
 0.0000 0.0000 1.8099
 0.6741 1.1675 2.2866
 0.6746 -1.1670 2.2870
 -1.6497 0.0009 2.3938
 -2.5867 1.0412 1.9460
 -2.5588 2.2088 2.9311
 -3.5329 3.2902 2.4656
 -3.5050 4.4578 3.4508
 -4.4791 5.5392 2.9853
 -4.4512 6.7068 3.9704
 -5.3882 7.7471 3.5226
 -4.8242 9.0505 2.5001
 -3.8100 9.7889 3.1864
 -4.2851 8.5082 1.2918
 -6.2082 10.1481 2.1051
 1.0266 -0.0122 -0.3616
 -0.5238 -0.8804 -0.3627
 -0.5005 0.8964 -0.3616
 -1.9574 -0.7133 3.0382
 -2.2936 1.3917 0.9586
 -3.5921 0.6277 1.9009
 -2.8514 1.8568 3.9180
 -1.5528 2.6208 2.9758
 -3.2397 3.6408 1.4782
 -4.5383 2.8767 2.4205
 -3.7977 4.1058 4.4378
 -2.4990 4.8698 3.4955
 -4.1858 5.8898 1.9979
 -5.4844 5.1257 2.9402
 -4.7437 6.3548 4.9574
 -3.4452 7.1189 4.0151
 -6.3571 7.7092 3.8053
 -6.6095 10.5698 3.0243
 -5.8603 10.9510 1.4586
 -6.9852 9.5820 1.5955
@<BUDE>CONF  10  
 0.0006 0.0011 0.0000
 0.0000 0.0000 1.8099
 0.6741 1.1675 2.2866
 0.6746 -1.1670 2.2870
 -1.6497 0.0009 2.3938
 -1.9173 -0.0154 3.8391
 -2.0584 1.4190 4.3462
 -2.3366 1.4020 5.8486
 -2.4777 2.8364 6.3558
 -2.7558 2.8194 7.8582
 -2.8970 4.2538 8.3654
 -3.1645 4.2375 9.8108
 -4.8142 4.2384 10.3946
 -5.4571 3.0216 10.0063
 -4.8142 4.3445 11.8207
 -5.7038 5.6454 9.6840
 1.0266 -0.0122 -0.3616
 -0.5238 -0.8804 -0.3627
 -0.5005 0.8964 -0.3616
 -2.4173 0.0128 1.7375
 -2.8390 -0.5609 4.0304
 -1.0927 -0.5036 4.3544
 -1.1365 1.9634 4.1536
 -2.8828 1.9061 3.8297
 -3.2584 0.8566 6.0400
 -1.5120 0.9138 6.3639
 -1.5556 3.3808 6.1633
 -3.3020 3.3236 5.8392
 -3.6777 2.2740 8.0496
 -1.9313 2.3312 8.3736
 -1.9750 4.7982 8.1728
 -3.7213 4.7410 7.8488
 -2.3961 4.2258 10.4661
 -5.7140 5.5570 8.5996
 -6.7257 5.6536 10.0574
 -5.2056 6.5699 9.9685
@<BUDE>CONF  11 
 0.0006 0.0011 0.0000
 0.0000 0.0000 1.8099
 0.6741 1.1675 2.2866
 0.6746 -1.1670 2.2870
 -1.6497 0.0009 2.3938
 -2.5833 -1.0480 1.9591
 -2.5515 -2.2030 2.9589
 -3.5220 -3.2934 2.5070
 -3.4902 -4.4484 3.5068
 -4.4607 -5.5388 3.0549
 -4.4289 -6.6939 4.0547
 -5.3625 -7.7428 3.6200
 -7.0122 -7.7419 4.2039
 -7.0127 -7.8651 5.6286
 -7.6485 -6.5170 3.8302
 -7.9093 -9.1354 3.4764
 1.0266 -0.0122 -0.3616
 -0.5238 -0.8804 -0.3627
 -0.5005 0.8964 -0.3616
 -1.9597 0.7221 3.0293
 -3.5900 -0.6384 1.9088
 -2.2889 -1.4099 0.9762
 -1.5443 -2.6110 3.0087
 -2.8453 -1.8395 3.9414
 -4.5287 -2.8838 2.4568
 -3.2276 -3.6553 1.5241
 -2.4829 -4.8566 3.5565
 -3.7840 -4.0850 4.4893
 -5.4675 -5.1293 3.0048
 -4.1663 -5.9007 2.0720
 -3.4216 -7.1019 4.1045
 -4.7227 -6.3304 5.0372
 -5.0514 -8.4636 2.9846
 -7.4316 -10.0673 3.7717
 -8.9385 -9.1271 3.8290
 -7.8961 -9.0481 2.3920
@<BUDE>CONF  12 
 0.0006 0.0011 0.0000
 0.0000 0.0000 1.8099
 0.6741 1.1675 2.2866
 0.6746 -1.1670 2.2870
 -1.6497 0.0009 2.3938
 -2.5867 1.0412 1.9460
 -2.5588 2.2088 2.9311
 -3.5329 3.2902 2.4656
 -3.5050 4.4578 3.4508
 -4.4791 5.5392 2.9853
 -4.4512 6.7068 3.9704
 -4.8638 6.2349 5.3000
 -6.5449 6.3264 5.7775
 -6.9703 7.6916 5.7618
 -7.3410 5.5675 4.8637
 -6.7343 5.6536 7.4471
 1.0266 -0.0122 -0.3616
 -0.5238 -0.8804 -0.3627
 -0.5005 0.8964 -0.3616
 -1.9574 -0.7133 3.0382
 -2.2936 1.3917 0.9586
 -3.5921 0.6277 1.9009
 -2.8514 1.8568 3.9180
 -1.5528 2.6208 2.9758
 -3.2397 3.6408 1.4782
 -4.5383 2.8767 2.4205
 -3.7977 4.1058 4.4378
 -2.4990 4.8698 3.4955
 -4.1858 5.8898 1.9979
 -5.4844 5.1257 2.9402
 -3.4423 7.1103 4.0251
 -5.1349 7.4825 3.6319
 -4.1769 5.8582 5.9375
 -6.1379 6.2395 8.1433
 -7.7815 5.6982 7.7387
 -6.3970 4.6192 7.4609
@<BUDE>CONF  13 
 0.0006 0.0011 0.0000
 0.0000 0.0000 1.8099
 0.6741 1.1675 2.2866
 0.6746 -1.1670 2.2870
 -1.6497 0.0009 2.3938
 -1.9173 -0.0154 3.8391
 -2.0725 -1.4603 4.3110
 -3.2485 -2.1096 3.5827
 -3.4037 -3.5545 4.0547
 -4.5797 -4.2037 3.3264
 -4.7349 -5.6487 3.7984
 -5.8662 -6.2732 3.0978
 -7.4642 -6.2359 3.8102
 -7.9246 -4.8836 3.8754
 -8.3612 -7.0077 3.0074
 -7.3958 -6.9321 5.4796
 1.0266 -0.0122 -0.3616
 -0.5238 -0.8804 -0.3627
 -0.5005 0.8964 -0.3616
 -2.4173 0.0128 1.7375
 -1.0881 0.4520 4.3661
 -2.8337 0.5341 4.0438
 -1.1608 -2.0123 4.0930
 -2.2574 -1.4731 5.3831
 -4.1595 -1.5562 3.8010
 -3.0628 -2.0954 2.5108
 -2.4919 -4.1065 3.8366
 -3.5885 -3.5673 5.1269
 -5.4908 -3.6504 3.5447
 -4.3941 -4.1895 2.2545
 -3.8231 -6.2007 3.5804
 -4.9198 -5.6614 4.8706
 -5.7207 -6.7237 2.2056
 -6.7226 -6.3367 6.0929
 -8.3917 -6.9212 5.9175
 -7.0319 -7.9564 5.4300
@<BUDE>CONF  14 
 0.0006 0.0011 0.0000
 0.0000 0.0000 1.8099
 0.6741 1.1675 2.2866
 0.6746 -1.1670 2.2870
 -1.6497 0.0009 2.3938
 -2.5833 -1.0480 1.9591
 -2.5515 -2.2030 2.9589
 -3.5220 -3.2934 2.5070
 -3.4902 -4.4484 3.5068
 -4.4607 -5.5388 3.0549
 -4.4289 -6.6939 4.0547
 -3.0721 -7.2568 4.1087
 -2.6409 -8.6002 3.0734
 -3.4782 -9.7199 3.3734
 -2.8194 -8.2232 1.7056
 -0.9099 -9.0471 3.3562
 1.0266 -0.0122 -0.3616
 -0.5238 -0.8804 -0.3627
 -0.5005 0.8964 -0.3616
 -1.9597 0.7221 3.0293
 -3.5900 -0.6384 1.9088
 -2.2889 -1.4099 0.9762
 -1.5443 -2.6110 3.0087
 -2.8453 -1.8395 3.9414
 -4.5287 -2.8838 2.4568
 -3.2276 -3.6553 1.5241
 -2.4829 -4.8566 3.5565
 -3.7840 -4.0850 4.4893
 -5.4675 -5.1293 3.0048
 -4.1663 -5.9007 2.0720
 -4.7098 -6.3277 5.0399
 -5.1297 -7.4644 3.7400
 -2.3893 -6.8681 4.7434
 -0.7780 -9.3457 4.3941
 -0.6380 -9.8736 2.7030
 -0.2750 -8.1901 3.1412
@<BUDE>CONF  15 
 0.0006 0.0011 0.0000
 0.0000 0.0000 1.8099
 0.6741 1.1675 2.2866
 0.6746 -1.1670 2.2870
 -1.6497 0.0009 2.3938
 -1.9173 -0.0154 3.8391
 -2.0725 -1.4603 4.3110
 -2.3506 -1.4773 5.8134
 -2.5059 -2.9223 6.2854
 -2.7840 -2.9393 7.7879
 -2.9392 -4.3842 8.2599
 -4.0705 -5.0088 7.5592
 -5.6685 -4.9714 8.2716
 -6.1289 -3.6192 8.3368
 -6.5655 -5.7432 7.4688
 -5.6001 -5.6677 9.9410
 1.0266 -0.0122 -0.3616
 -0.5238 -0.8804 -0.3627
 -0.5005 0.8964 -0.3616
 -2.4173 0.0128 1.7375
 -1.0881 0.4520 4.3661
 -2.8337 0.5341 4.0438
 -2.9014 -1.9266 3.7828
 -1.1558 -2.0089 4.1051
 -1.5213 -1.0100 6.3405
 -3.2670 -0.9277 6.0182
 -3.3349 -3.3886 5.7573
 -1.5892 -3.4709 6.0794
 -1.9547 -2.4720 8.3149
 -3.7004 -2.3897 7.9926
 -2.0274 -4.9362 8.0418
 -3.1241 -4.3970 9.3320
 -3.9250 -5.4593 6.6670
 -4.9269 -5.0723 10.5543
 -6.5960 -5.6567 10.3789
 -5.2362 -6.6919 9.8914
@<BUDE>CONF  16 
 0.0006 0.0011 0.0000
 0.0000 0.0000 1.8099
 0.6741 1.1675 2.2866
 0.6746 -1.1670 2.2870
 -1.6497 0.0009 2.3938
 -2.5867 1.0412 1.9460
 -2.5588 2.2088 2.9311
 -2.9878 1.7182 4.3133
 -2.9599 2.8859 5.2984
 -3.3888 2.3953 6.6806
 -3.3609 3.5630 7.6657
 -3.7735 3.0911 8.9953
 -5.4546 3.1826 9.4728
 -5.8801 4.5477 9.4571
 -6.2508 2.4236 8.5590
 -5.6440 2.5097 11.1424
 1.0266 -0.0122 -0.3616
 -0.5238 -0.8804 -0.3627
 -0.5005 0.8964 -0.3616
 -1.9574 -0.7133 3.0382
 -2.2936 1.3917 0.9586
 -3.5921 0.6277 1.9009
 -1.5500 2.6122 2.9858
 -3.2425 2.9845 2.5926
 -3.9965 1.3143 4.2571
 -2.3039 0.9420 4.6502
 -1.9509 3.2893 5.3532
 -3.6435 3.6616 4.9599
 -4.3975 1.9914 6.6244
 -2.7049 1.6191 7.0175
 -2.3520 3.9665 7.7204
 -4.0446 4.3387 7.3272
 -3.0866 2.7143 9.6327
 -5.0476 3.0957 11.8386
 -6.6912 2.5543 11.4340
 -5.3067 1.4753 11.1562
@<BUDE>CONF  17 
 0.0006 0.0011 0.0000
 0.0000 0.0000 1.8099
 0.6741 1.1675 2.2866
 0.6746 -1.1670 2.2870
 -1.6497 0.0009 2.3938
 -2.5833 -1.0480 1.9591
 -2.5515 -2.2030 2.9589
 -2.9821 -1.6965 4.3347
 -2.9503 -2.8516 5.3345
 -3.3809 -2.3451 6.7104
 -3.3492 -3.5002 7.7101
 -3.7634 -3.0130 9.0337
 -2.5610 -2.4516 10.1745
 -1.6597 -3.5191 10.4796
 -1.8339 -1.3617 9.6017
 -3.3807 -1.9006 11.6912
 1.0266 -0.0122 -0.3616
 -0.5238 -0.8804 -0.3627
 -0.5005 0.8964 -0.3616
 -1.9597 0.7221 3.0293
 -3.5900 -0.6384 1.9088
 -2.2889 -1.4099 0.9762
 -3.2325 -2.9850 2.6302
 -1.5412 -2.6024 3.0186
 -2.3007 -0.9139 4.6620
 -3.9921 -1.2966 4.2735
 -3.6315 -3.6337 5.0058
 -1.9401 -3.2511 5.3942
 -2.6995 -1.5626 7.0376
 -4.3909 -1.9452 6.6491
 -4.0302 -4.2823 7.3814
 -2.3389 -3.8996 7.7699
 -4.7418 -3.0025 9.2841
 -3.9233 -2.7339 12.1328
 -2.6342 -1.5392 12.3954
 -4.0765 -1.0980 11.4556
@<BUDE>CONF  18 
 0.0006 0.0011 0.0000
 0.0000 0.0000 1.8099
 0.6741 1.1675 2.2866
 0.6746 -1.1670 2.2870
 -1.6497 0.0009 2.3938
 -1.9173 -0.0154 3.8391
 -2.0725 -1.4603 4.3110
 -2.3506 -1.4773 5.8134
 -2.5059 -2.9223 6.2854
 -2.7840 -2.9393 7.7879
 -2.9392 -4.3842 8.2599
 -1.6943 -5.1207 7.9979
 -0.4587 -5.2169 9.2334
 0.5996 -6.0664 8.7828
 0.0568 -3.9087 9.4936
 -1.1753 -5.8968 10.7501
 1.0266 -0.0122 -0.3616
 -0.5238 -0.8804 -0.3627
 -0.5005 0.8964 -0.3616
 -2.4173 0.0128 1.7375
 -1.0881 0.4520 4.3661
 -2.8337 0.5341 4.0438
 -2.9014 -1.9266 3.7828
 -1.1558 -2.0089 4.1051
 -1.5213 -1.0100 6.3405
 -3.2670 -0.9277 6.0182
 -3.3349 -3.3886 5.7573
 -1.5892 -3.4709 6.0794
 -1.9547 -2.4720 8.3149
 -3.7004 -2.3897 7.9926
 -3.1504 -4.3957 9.3270
 -3.7597 -4.8546 7.7220
 -1.5527 -5.5709 7.1049
 -1.5559 -6.8970 10.5539
 -0.4103 -5.9441 11.5223
 -1.9896 -5.2571 11.0842
@<BUDE>CONF  19 
 0.0006 0.0011 0.0000
 0.0000 0.0000 1.8099
 0.6741 1.1675 2.2866
 0.6746 -1.1670 2.2870
 -1.6497 0.0009 2.3938
 -1.9173 -0.0154 3.8391
 -2.0584 1.4190 4.3462
 -2.3366 1.4020 5.8486
 -2.4777 2.8364 6.3558
 -2.7558 2.8194 7.8582
 -2.8970 4.2538 8.3654
 -4.0220 4.9064 7.6804
 -5.6204 4.8672 8.3919
 -6.5137 5.6529 7.5985
 -6.0867 3.5163 8.4402
 -5.5494 5.5424 10.0697
 1.0266 -0.0122 -0.3616
 -0.5238 -0.8804 -0.3627
 -0.5005 0.8964 -0.3616
 -2.4173 0.0128 1.7375
 -2.8390 -0.5609 4.0304
 -1.0927 -0.5036 4.3544
 -1.1365 1.9634 4.1536
 -2.8828 1.9061 3.8297
 -3.2584 0.8566 6.0400
 -1.5120 0.9138 6.3639
 -1.5556 3.3808 6.1633
 -3.3020 3.3236 5.8392
 -3.6777 2.2740 8.0496
 -1.9313 2.3312 8.3736
 -3.0818 4.2422 9.4375
 -1.9797 4.8021 8.1608
 -3.8720 5.3769 6.7994
 -5.2064 6.5742 10.0306
 -6.5406 5.5058 10.5169
 -4.8586 4.9524 10.6685
@<BUDE>CONF  20 
 0.0006 0.0011 0.0000
 0.0000 0.0000 1.8099
 0.6741 1.1675 2.2866
 0.6746 -1.1670 2.2870
 -1.6497 0.0009 2.3938
 -2.5867 1.0412 1.9460
 -2.5588 2.2088 2.9311
 -2.9878 1.7182 4.3133
 -2.9599 2.8859 5.2984
 -3.3888 2.3953 6.6806
 -3.3609 3.5630 7.6657
 -1.9940 4.0967 7.7531
 -0.8963 3.4935 8.9752
 -1.4390 3.7537 10.2724
 -0.7218 2.0845 8.8044
 0.7031 4.3248 8.8113
 1.0266 -0.0122 -0.3616
 -0.5238 -0.8804 -0.3627
 -0.5005 0.8964 -0.3616
 -1.9574 -0.7133 3.0382
 -2.2936 1.3917 0.9586
 -3.5921 0.6277 1.9009
 -1.5500 2.6122 2.9858
 -3.2425 2.9845 2.5926
 -3.9965 1.3143 4.2571
 -2.3039 0.9420 4.6502
 -1.9509 3.2893 5.3532
 -3.6435 3.6616 4.9599
 -4.3975 1.9914 6.6244
 -2.7049 1.6191 7.0175
 -4.0345 4.3443 7.3202
 -3.6790 3.2166 8.6468
 -1.6891 4.8113 7.1078
 0.5710 5.3954 8.9539
 1.3897 3.9402 9.5626
 1.1084 4.1377 7.8190
@<BUDE>CONF  21 
 0.0006 0.0011 0.0000
 0.0000 0.0000 1.8099
 0.6741 1.1675 2.2866
 0.6746 -1.1670 2.2870
 -1.6497 0.0009 2.3938
 -2.5833 -1.0480 1.9591
 -2.5515 -2.2030 2.9589
 -2.9821 -1.6965 4.3347
 -2.9503 -2.8516 5.3345
 -3.3809 -2.3451 6.7104
 -3.3492 -3.5002 7.7101
 -1.9805 -4.0282 7.8042
 -0.8849 -3.4061 9.0186
 -0.6877 -2.0053 8.8088
 -1.4429 -3.6206 10.3176
 0.7033 -4.2652 8.8937
 1.0266 -0.0122 -0.3616
 -0.5238 -0.8804 -0.3627
 -0.5005 0.8964 -0.3616
 -1.9597 0.7221 3.0293
 -3.5900 -0.6384 1.9088
 -2.2889 -1.4099 0.9762
 -3.2325 -2.9850 2.6302
 -1.5412 -2.6024 3.0186
 -2.3007 -0.9139 4.6620
 -3.9921 -1.2966 4.2735
 -3.6315 -3.6337 5.0058
 -1.9401 -3.2511 5.3942
 -2.6995 -1.5626 7.0376
 -4.3909 -1.9452 6.6491
 -3.6685 -3.1426 8.6867
 -4.0202 -4.2881 7.3745
 -1.6731 -4.7498 7.1678
 1.1328 -4.0910 7.9093
 1.3801 -3.8878 9.6574
 0.5500 -5.3325 9.0395
@<BUDE>CONF  23 
 0.0006 0.0011 0.0000
 0.0000 0.0000 1.8099
 0.6741 1.1675 2.2866
 0.6746 -1.1670 2.2870
 -1.6497 0.0009 2.3938
 -1.9173 -0.0154 3.8391
 -2.0584 1.4190 4.3462
 -3.2279 2.0973 3.6342
 -3.3690 3.5317 4.1414
 -4.5385 4.2100 3.4293
 -4.6797 5.6444 3.9365
 -4.9472 5.6281 5.3818
 -6.5969 5.6290 5.9657
 -7.2398 4.4122 5.5773
 -6.5969 5.7351 7.3917
 -7.4865 7.0360 5.2550
 1.0266 -0.0122 -0.3616
 -0.5238 -0.8804 -0.3627
 -0.5005 0.8964 -0.3616
 -2.4173 0.0128 1.7375
 -2.8390 -0.5609 4.0304
 -1.0927 -0.5036 4.3544
 -2.2432 1.4073 5.4182
 -1.1412 1.9672 4.1416
 -3.0422 2.1076 2.5621
 -4.1443 1.5476 3.8388
 -3.5540 3.5201 5.2134
 -2.4518 4.0799 3.9368
 -4.3528 4.2203 2.3572
 -5.4549 3.6604 3.6339
 -3.7577 6.1889 3.7439
 -5.5040 6.1316 3.4199
 -4.1788 5.6164 6.0372
 -7.4967 6.9476 4.1706
 -8.5084 7.0443 5.6285
 -6.9883 7.9605 5.5396
@<BUDE>CONF  24 
 0.0006 0.0011 0.0000
 0.0000 0.0000 1.8099
 0.6741 1.1675 2.2866
 0.6746 -1.1670 2.2870
 -1.6497 0.0009 2.3938
 -1.9173 -0.0154 3.8391
 -2.0725 -1.4603 4.3110
 -3.2485 -2.1096 3.5827
 -3.4037 -3.5545 4.0547
 -4.5797 -4.2037 3.3264
 -4.7349 -5.6487 3.7984
 -5.0025 -5.6650 5.2438
 -6.6522 -5.6641 5.8277
 -6.6527 -5.7873 7.2523
 -7.2885 -4.4392 5.4539
 -7.5493 -7.0577 5.1002
 1.0266 -0.0122 -0.3616
 -0.5238 -0.8804 -0.3627
 -0.5005 0.8964 -0.3616
 -2.4173 0.0128 1.7375
 -1.0881 0.4520 4.3661
 -2.8337 0.5341 4.0438
 -1.1608 -2.0123 4.0930
 -2.2574 -1.4731 5.3831
 -4.1595 -1.5562 3.8010
 -3.0628 -2.0954 2.5108
 -2.4919 -4.1065 3.8366
 -3.5885 -3.5673 5.1269
 -5.4908 -3.6504 3.5447
 -4.3941 -4.1895 2.2545
 -5.5639 -6.1150 3.2702
 -3.8182 -6.1973 3.5925
 -4.2341 -5.6767 5.8992
 -7.0716 -7.9896 5.3955
 -8.5785 -7.0493 5.4528
 -7.5361 -6.9703 4.0157
@<BUDE>CONF  25 
 0.0006 0.0011 0.0000
 0.0000 0.0000 1.8099
 0.6741 1.1675 2.2866
 0.6746 -1.1670 2.2870
 -1.6497 0.0009 2.3938
 -2.5867 1.0412 1.9460
 -2.5588 2.2088 2.9311
 -2.9878 1.7182 4.3133
 -2.9599 2.8859 5.2984
 -3.3888 2.3953 6.6806
 -3.3609 3.5630 7.6657
 -3.7735 3.0911 8.9953
 -5.4546 3.1826 9.4728
 -6.2323 2.3136 8.6452
 -5.5835 2.7823 10.8395
 -6.0428 4.8838 9.2833
 1.0266 -0.0122 -0.3616
 -0.5238 -0.8804 -0.3627
 -0.5005 0.8964 -0.3616
 -1.9574 -0.7133 3.0382
 -2.2936 1.3917 0.9586
 -3.5921 0.6277 1.9009
 -1.5500 2.6122 2.9858
 -3.2425 2.9845 2.5926
 -3.9965 1.3143 4.2571
 -2.3039 0.9420 4.6502
 -1.9509 3.2893 5.3532
 -3.6435 3.6616 4.9599
 -4.3975 1.9914 6.6244
 -2.7049 1.6191 7.0175
 -2.3520 3.9665 7.7204
 -4.0446 4.3387 7.3272
 -3.0866 2.7143 9.6327
 -5.9558 5.1829 8.2408
 -7.0841 4.9434 9.5927
 -5.4412 5.5460 9.9026
@<BUDE>CONF  26 
 0.0006 0.0011 0.0000
 0.0000 0.0000 1.8099
 0.6741 1.1675 2.2866
 0.6746 -1.1670 2.2870
 -1.6497 0.0009 2.3938
 -2.5833 -1.0480 1.9591
 -2.5515 -2.2030 2.9589
 -2.9821 -1.6965 4.3347
 -2.9503 -2.8516 5.3345
 -3.3809 -2.3451 6.7104
 -3.3492 -3.5002 7.7101
 -3.7634 -3.0130 9.0337
 -2.5610 -2.4516 10.1745
 -1.9295 -1.2762 9.6603
 -3.1927 -2.1481 11.4209
 -1.3191 -3.7443 10.4254
 1.0266 -0.0122 -0.3616
 -0.5238 -0.8804 -0.3627
 -0.5005 0.8964 -0.3616
 -1.9597 0.7221 3.0293
 -3.5900 -0.6384 1.9088
 -2.2889 -1.4099 0.9762
 -3.2325 -2.9850 2.6302
 -1.5412 -2.6024 3.0186
 -2.3007 -0.9139 4.6620
 -3.9921 -1.2966 4.2735
 -3.6315 -3.6337 5.0058
 -1.9401 -3.2511 5.3942
 -2.6995 -1.5626 7.0376
 -4.3909 -1.9452 6.6491
 -4.0302 -4.2823 7.3814
 -2.3389 -3.8996 7.7699
 -4.7418 -3.0025 9.2841
 -0.8304 -3.9655 9.4788
 -0.5788 -3.4003 11.1447
 -1.8028 -4.6426 10.8033
@<BUDE>CONF  27 
 0.0006 0.0011 0.0000
 0.0000 0.0000 1.8099
 0.6741 1.1675 2.2866
 0.6746 -1.1670 2.2870
 -1.6497 0.0009 2.3938
 -2.5867 1.0412 1.9460
 -2.5588 2.2088 2.9311
 -3.5329 3.2902 2.4656
 -3.5050 4.4578 3.4508
 -4.4791 5.5392 2.9853
 -4.4512 6.7068 3.9704
 -3.0962 7.2749 4.0174
 -2.6695 8.6066 2.9652
 -1.3434 9.0470 3.2691
 -2.7291 8.1749 1.6033
 -3.8321 9.9705 3.2183
 1.0266 -0.0122 -0.3616
 -0.5238 -0.8804 -0.3627
 -0.5005 0.8964 -0.3616
 -1.9574 -0.7133 3.0382
 -2.2936 1.3917 0.9586
 -3.5921 0.6277 1.9009
 -2.8514 1.8568 3.9180
 -1.5528 2.6208 2.9758
 -3.2397 3.6408 1.4782
 -4.5383 2.8767 2.4205
 -3.7977 4.1058 4.4378
 -2.4990 4.8698 3.4955
 -4.1858 5.8898 1.9979
 -5.4844 5.1257 2.9402
 -5.1544 7.4709 3.6462
 -4.7308 6.3521 4.9602
 -2.4121 6.8964 4.6568
 -3.7768 10.3063 4.2518
 -3.5748 10.7934 2.5547
 -4.8424 9.6303 3.0004
@<BUDE>CONF  28 
 0.0006 0.0011 0.0000
 0.0000 0.0000 1.8099
 0.6741 1.1675 2.2866
 0.6746 -1.1670 2.2870
 -1.6497 0.0009 2.3938
 -2.5833 -1.0480 1.9591
 -2.5515 -2.2030 2.9589
 -3.5220 -3.2934 2.5070
 -3.4902 -4.4484 3.5068
 -4.4607 -5.5388 3.0549
 -4.4289 -6.6939 4.0547
 -4.8431 -6.2067 5.3783
 -6.5239 -6.2977 5.8569
 -6.6567 -5.8640 7.2130
 -7.3069 -5.4553 5.0071
 -7.1002 -8.0073 5.7100
 1.0266 -0.0122 -0.3616
 -0.5238 -0.8804 -0.3627
 -0.5005 0.8964 -0.3616
 -1.9597 0.7221 3.0293
 -3.5900 -0.6384 1.9088
 -2.2889 -1.4099 0.9762
 -1.5443 -2.6110 3.0087
 -2.8453 -1.8395 3.9414
 -4.5287 -2.8838 2.4568
 -3.2276 -3.6553 1.5241
 -2.4829 -4.8566 3.5565
 -3.7840 -4.0850 4.4893
 -5.4675 -5.1293 3.0048
 -4.1663 -5.9007 2.0720
 -5.1100 -7.4760 3.7260
 -3.4186 -7.0933 4.1144
 -4.1575 -5.8195 6.0108
 -6.5119 -8.6452 6.3663
 -8.1488 -8.0615 5.9948
 -6.9855 -8.3408 4.6807
@<BUDE>CONF  29   
 0.0006 0.0011 0.0000
 0.0000 0.0000 1.8099
 0.6741 1.1675 2.2866
 0.6746 -1.1670 2.2870
 -1.6497 0.0009 2.3938
 -2.5833 -1.0480 1.9591
 -2.5515 -2.2030 2.9589
 -2.9821 -1.6965 4.3347
 -2.9503 -2.8516 5.3345
 -3.3809 -2.3451 6.7104
 -3.3492 -3.5002 7.7101
 -4.2828 -4.5492 7.2754
 -5.9324 -4.5482 7.8593
 -6.6104 -3.3890 7.3680
 -6.6014 -5.7246 7.3972
 -5.9307 -4.5256 9.6692
 1.0266 -0.0122 -0.3616
 -0.5238 -0.8804 -0.3627
 -0.5005 0.8964 -0.3616
 -1.9597 0.7221 3.0293
 -3.5900 -0.6384 1.9088
 -2.2889 -1.4099 0.9762
 -3.2325 -2.9850 2.6302
 -1.5412 -2.6024 3.0186
 -2.3007 -0.9139 4.6620
 -3.9921 -1.2966 4.2735
 -3.6315 -3.6337 5.0058
 -1.9401 -3.2511 5.3942
 -2.6995 -1.5626 7.0376
 -4.3909 -1.9452 6.6491
 -2.3419 -3.9083 7.7600
 -3.6430 -3.1368 8.6927
 -3.9716 -5.2700 6.6400
 -5.4325 -3.6240 10.0195
 -6.9562 -4.5385 10.0324
 -5.4023 -5.4008 10.0417
@<BUDE>CONF  30 
 0.0006 0.0011 0.0000
 0.0000 0.0000 1.8099
 0.6741 1.1675 2.2866
 0.6746 -1.1670 2.2870
 -1.6497 0.0009 2.3938
 -2.5867 1.0412 1.9460
 -2.5588 2.2088 2.9311
 -2.9878 1.7182 4.3133
 -2.9599 2.8859 5.2984
 -3.3888 2.3953 6.6806
 -3.3609 3.5630 7.6657
 -4.2980 4.6033 7.2179
 -5.9476 4.6042 7.8018
 -6.6256 5.7634 7.3105
 -6.6166 3.4279 7.3397
 -5.9459 4.6269 9.6117
 1.0266 -0.0122 -0.3616
 -0.5238 -0.8804 -0.3627
 -0.5005 0.8964 -0.3616
 -1.9574 -0.7133 3.0382
 -2.2936 1.3917 0.9586
 -3.5921 0.6277 1.9009
 -1.5500 2.6122 2.9858
 -3.2425 2.9845 2.5926
 -3.9965 1.3143 4.2571
 -2.3039 0.9420 4.6502
 -1.9509 3.2893 5.3532
 -3.6435 3.6616 4.9599
 -4.3975 1.9914 6.6244
 -2.7049 1.6191 7.0175
 -3.6535 3.2110 8.6527
 -2.3549 3.9750 7.7104
 -3.9892 5.3170 6.5733
 -5.4477 5.5285 9.9620
 -6.9714 4.6140 9.9748
 -5.4175 3.7517 9.9842
