@<TRIPOS>MOLECULE
ZINC02227500_0
   22    24     1     0     0
SMALL
USER_CHARGES
INVALID_CHARGES
 
@<TRIPOS>ATOM
      1 C1         -1.2884    0.0000   -0.7076 C.3       1 <1>         0.3194  
      2 N1         -0.0004   -0.0005    0.0008 N.pl3     1 <1>        -0.4769  
      3 C2          0.9643    0.8281   -0.3027 C.2       1 <1>         0.3171  
      4 C3          2.2651    0.8516    0.4026 C.2       1 <1>         0.3210  
      5 N2          3.0499    1.7816   -0.1087 N.2       1 <1>        -0.2760  
      6 O1          2.2460    2.3267   -1.1168 O.3       1 <1>         0.0506  
      7 N3          0.9582    1.7488   -1.2485 N.2       1 <1>        -0.2740  
      8 N4          2.5508   -0.0017    1.4356 N.pl3     1 <1>        -0.4794  
      9 C4          1.5436   -0.8722    1.7588 C.2       1 <1>         0.3182  
     10 C5          0.2549   -0.8666    1.0310 C.2       1 <1>         0.3113  
     11 N5         -0.5431   -1.7925    1.5293 N.2       1 <1>        -0.2636  
     12 O2          0.2619   -2.3540    2.5541 O.3       1 <1>         0.0468  
     13 N6          1.5381   -1.7973    2.7004 N.2       1 <1>        -0.2717  
     14 C6          3.8433    0.0049    2.1357 C.3       1 <1>         0.3187  
     15 O3          4.2824   -1.3410    2.3368 O.3       1 <1>        -0.5831  
     16 O4         -1.7069    1.3481   -0.9367 O.3       1 <1>        -0.5790  
     17 H1         -2.0339   -0.5128   -0.1036 H         1 <1>         0.0922  
     18 H2         -1.1791   -0.5133   -1.6606 H         1 <1>         0.0977  
     19 H3          3.7307    0.4980    3.0990 H         1 <1>         0.0998  
     20 H4          4.5767    0.5407    1.5367 H         1 <1>         0.0941  
     21 H5          4.3667   -1.8089    1.4912 H         1 <1>         0.4091  
     22 H6         -1.8005    1.8296   -0.0998 H         1 <1>         0.4075  
@<TRIPOS>BOND
     1    1    2 1    
     2    1   16 1    
     3    1   17 1    
     4    1   18 1    
     5    2   10 1    
     6    2    3 1    
     7    3    7 2    
     8    3    4 1    
     9    4    5 2    
    10    4    8 1    
    11    5    6 1    
    12    6    7 1    
    13    8    9 1    
    14    8   14 1    
    15    9   13 2    
    16    9   10 1    
    17   10   11 2    
    18   11   12 1    
    19   12   13 1    
    20   14   15 1    
    21   14   19 1    
    22   14   20 1    
    23   15   21 1    
    24   16   22 1    
@<TRIPOS>SUBSTRUCTURE
     1 ****        1 TEMP              0 ****  ****    0 ROOT
@<BUDE>CONF  1
 -1.2884 0.0000 -0.7076
 -0.0004 -0.0005 0.0008
 0.9643 0.8281 -0.3027
 2.2651 0.8516 0.4026
 3.0499 1.7816 -0.1087
 2.2460 2.3267 -1.1168
 0.9582 1.7488 -1.2485
 2.5508 -0.0017 1.4356
 1.5436 -0.8722 1.7588
 0.2549 -0.8666 1.0310
 -0.5431 -1.7925 1.5293
 0.2619 -2.3540 2.5541
 1.5381 -1.7973 2.7004
 3.8433 0.0049 2.1357
 4.2824 -1.3410 2.3368
 -1.7069 1.3481 -0.9367
 -2.0339 -0.5128 -0.1036
 -1.1791 -0.5133 -1.6606
 3.7307 0.4980 3.0990
 4.5767 0.5407 1.5367
 4.3667 -1.8089 1.4912
 -1.8005 1.8296 -0.0998
@<BUDE>CONF  2  
 -1.2884 0.0000 -0.7076
 -0.0004 -0.0005 0.0008
 0.9643 0.8281 -0.3027
 2.2651 0.8516 0.4026
 3.0499 1.7816 -0.1087
 2.2460 2.3267 -1.1168
 0.9582 1.7488 -1.2485
 2.5508 -0.0017 1.4356
 1.5436 -0.8722 1.7588
 0.2549 -0.8666 1.0310
 -0.5431 -1.7925 1.5293
 0.2619 -2.3540 2.5541
 1.5381 -1.7973 2.7004
 3.8433 0.0049 2.1357
 4.7472 -0.8843 1.4745
 -1.7069 1.3481 -0.9367
 -2.0339 -0.5128 -0.1036
 -1.1791 -0.5133 -1.6606
 3.6999 -0.3212 3.1637
 4.2540 1.0124 2.1279
 4.8718 -0.6269 0.5475
 -1.8005 1.8296 -0.0998
@<BUDE>CONF  3  
 -1.2884 0.0000 -0.7076
 -0.0004 -0.0005 0.0008
 0.2569 0.8224 0.9836
 1.5425 0.8335 1.7166
 1.5308 1.7632 2.6536
 0.2553 2.3201 2.5029
 -0.5409 1.7509 1.4773
 2.5628 -0.0292 1.4139
 2.2991 -0.8945 0.3851
 1.0009 -0.8768 -0.3253
 0.9952 -1.8009 -1.2678
 2.2856 -2.3739 -1.1256
 3.0882 -1.8253 -0.1182
 3.8478 -0.0194 2.1275
 4.7461 0.8838 1.4777
 -1.7069 1.3481 -0.9367
 -2.0339 -0.5128 -0.1036
 -1.1791 -0.5133 -1.6606
 4.2727 -1.0211 2.1217
 3.6891 0.3022 3.1546
 4.3768 1.7804 1.4492
 -1.0406 1.8371 -1.4444
@<BUDE>CONF  4  
 -1.2884 0.0000 -0.7076
 -0.0004 -0.0005 0.0008
 0.9643 0.8281 -0.3027
 2.2651 0.8516 0.4026
 3.0499 1.7816 -0.1087
 2.2460 2.3267 -1.1168
 0.9582 1.7488 -1.2485
 2.5508 -0.0017 1.4356
 1.5436 -0.8722 1.7588
 0.2549 -0.8666 1.0310
 -0.5431 -1.7925 1.5293
 0.2619 -2.3540 2.5541
 1.5381 -1.7973 2.7004
 3.8433 0.0049 2.1357
 4.2824 -1.3410 2.3368
 -1.7069 1.3481 -0.9367
 -2.0339 -0.5128 -0.1036
 -1.1791 -0.5133 -1.6606
 3.7307 0.4980 3.0990
 4.5767 0.5407 1.5367
 4.3667 -1.8089 1.4912
 -2.5511 1.3734 -1.4137
@<BUDE>CONF  5  
 -1.2884 0.0000 -0.7076
 -0.0004 -0.0005 0.0008
 0.9643 0.8281 -0.3027
 2.2651 0.8516 0.4026
 3.0499 1.7816 -0.1087
 2.2460 2.3267 -1.1168
 0.9582 1.7488 -1.2485
 2.5508 -0.0017 1.4356
 1.5436 -0.8722 1.7588
 0.2549 -0.8666 1.0310
 -0.5431 -1.7925 1.5293
 0.2619 -2.3540 2.5541
 1.5381 -1.7973 2.7004
 3.8433 0.0049 2.1357
 4.2824 -1.3410 2.3368
 -1.7069 1.3481 -0.9367
 -2.0339 -0.5128 -0.1036
 -1.1791 -0.5133 -1.6606
 3.7307 0.4980 3.0990
 4.5767 0.5407 1.5367
 5.1355 -1.3628 2.7981
 -1.8005 1.8296 -0.0998
@<BUDE>CONF  6  
 -1.2884 0.0000 -0.7076
 -0.0004 -0.0005 0.0008
 0.9643 0.8281 -0.3027
 2.2651 0.8516 0.4026
 3.0499 1.7816 -0.1087
 2.2460 2.3267 -1.1168
 0.9582 1.7488 -1.2485
 2.5508 -0.0017 1.4356
 1.5436 -0.8722 1.7588
 0.2549 -0.8666 1.0310
 -0.5431 -1.7925 1.5293
 0.2619 -2.3540 2.5541
 1.5381 -1.7973 2.7004
 3.8433 0.0049 2.1357
 4.7472 -0.8843 1.4745
 -1.7069 1.3481 -0.9367
 -2.0339 -0.5128 -0.1036
 -1.1791 -0.5133 -1.6606
 3.6999 -0.3212 3.1637
 4.2540 1.0124 2.1279
 4.8718 -0.6269 0.5475
 -2.5511 1.3734 -1.4137
@<BUDE>CONF  7  
 -1.2884 0.0000 -0.7076
 -0.0004 -0.0005 0.0008
 0.2569 0.8224 0.9836
 1.5425 0.8335 1.7166
 1.5308 1.7632 2.6536
 0.2553 2.3201 2.5029
 -0.5409 1.7509 1.4773
 2.5628 -0.0292 1.4139
 2.2991 -0.8945 0.3851
 1.0009 -0.8768 -0.3253
 0.9952 -1.8009 -1.2678
 2.2856 -2.3739 -1.1256
 3.0882 -1.8253 -0.1182
 3.8478 -0.0194 2.1275
 4.9163 -0.1426 1.1851
 -1.7069 1.3481 -0.9367
 -2.0339 -0.5128 -0.1036
 -1.1791 -0.5133 -1.6606
 3.8809 -0.8537 2.8251
 3.9514 0.9156 2.6739
 5.7768 -0.1387 1.6331
 -1.0406 1.8371 -1.4444
@<BUDE>CONF  8  
 -1.2884 0.0000 -0.7076
 -0.0004 -0.0005 0.0008
 0.9643 0.8281 -0.3027
 2.2651 0.8516 0.4026
 3.0499 1.7816 -0.1087
 2.2460 2.3267 -1.1168
 0.9582 1.7488 -1.2485
 2.5508 -0.0017 1.4356
 1.5436 -0.8722 1.7588
 0.2549 -0.8666 1.0310
 -0.5431 -1.7925 1.5293
 0.2619 -2.3540 2.5541
 1.5381 -1.7973 2.7004
 3.8433 0.0049 2.1357
 4.2824 -1.3410 2.3368
 -1.7069 1.3481 -0.9367
 -2.0339 -0.5128 -0.1036
 -1.1791 -0.5133 -1.6606
 3.7307 0.4980 3.0990
 4.5767 0.5407 1.5367
 5.1355 -1.3628 2.7981
 -2.5511 1.3734 -1.4137
