#        1GCZ_R01_S0001_C0000_L00003_S0001_C0047_G0010_E0001.mol2
#        Tue Jun  6 09:55:16 2017
#        Descriptor:     32    10    30    15     8    14
#        Energy - RMSD - RMSD MassCentre:     -64.6346    999.9999    999.9999
#        Receptor:       1  Surface Point:     1  Conformer:     0
#        Ligand:         3  Surface Point:     1  Conformer:    47
#        BUDE Formal Charge: 0
#        ATOM Count: 58
#        Heavy ATOM Count: 30
@<TRIPOS>MOLECULE
ZINC61580633_1GCZ_R01_S0001_C0000_L00003_S0001_C0047_G0010_E0001
 58 59 0 0 0
SMALL
USER_CHARGES
@<TRIPOS>ATOM
       1 C1        14.7143    3.8560    2.5201 C.3       1 <0>        -0.1532 
       2 C2        13.4558    3.0169    2.7223 C.3       1 <0>        -0.1224 
       3 C3        12.2510    3.9409    2.8942 C.3       1 <0>        -0.1198 
       4 C4        12.4591    4.8247    4.1232 C.3       1 <0>         0.0610 
       5 O1        12.5286    4.0047    5.2927 O.3       1 <0>        -0.3878 
       6 C5        11.3256    3.2583    5.4946 C.3       1 <0>         0.0487 
       7 C6        11.4620    2.4053    6.7549 C.3       1 <0>         0.1244 
       8 N1        10.2254    1.6382    6.9624 N.am      1 <0>        -0.7216 
       9 C7         9.9356    0.6156    6.1628 C.2       1 <0>         0.5161 
      10 O2        10.7016    0.3115    5.2499 O.2       1 <0>        -0.5151 
      11 C8         8.6654   -0.1725    6.3760 C.3       1 <0>         0.0490 
      12 O3         7.5392    0.6365    6.0266 O.3       1 <0>        -0.3194 
      13 C9         6.3082    0.0969    6.1531 C.2       1 <0>         0.5417 
      14 O4         6.1816   -1.0481    6.5551 O.2       1 <0>        -0.5337 
      15 C10        5.1116    0.8945    5.8040 C.2       1 <0>        -0.2559 
      16 C11        5.1505    2.2931    5.3213 C.2       1 <0>        -0.0791 
      17 C12        3.9313    2.7860    5.0914 C.2       1 <0>        -0.2585 
      18 S1         2.6472    1.6156    5.4283 S.3       1 <0>         0.3028 
      19 C13        3.8624    0.4207    5.9061 C.2       1 <0>         0.0893 
      20 N2         3.5976   -0.8496    6.3455 N.am      1 <0>        -0.6099 
      21 C14        2.3408   -1.2763    6.4304 C.2       1 <0>         0.5551 
      22 O5         1.4156   -0.5301    6.1142 O.2       1 <0>        -0.4939 
      23 C15        2.0564   -2.6489    6.9053 C.ar      1 <0>        -0.1466 
      24 C16        0.7190   -3.0557    6.9821 C.ar      1 <0>        -0.0772 
      25 C17        0.3832   -4.3152    7.4928 C.ar      1 <0>        -0.1241 
      26 C18        1.3791   -5.1881    7.9461 C.ar      1 <0>        -0.0446 
      27 C19        2.7200   -4.8053    7.8213 C.ar      1 <0>        -0.1261 
      28 C20        3.0530   -3.5567    7.2830 C.ar      1 <0>        -0.0460 
      29 C21        0.9927   -6.5167    8.5509 C.3       1 <0>        -0.0928 
      30 C22        0.8106   -6.3552   10.0573 C.3       1 <0>        -0.1485 
      31 H1        14.8743    4.4849    3.3934 H         1 <0>         0.0567 
      32 H2        14.5941    4.4822    1.6386 H         1 <0>         0.0554 
      33 H3        15.5700    3.1981    2.3844 H         1 <0>         0.0557 
      34 H4        13.3017    2.3785    1.8550 H         1 <0>         0.0632 
      35 H5        13.5691    2.4005    3.6117 H         1 <0>         0.0635 
      36 H6        12.1449    4.5676    2.0114 H         1 <0>         0.0711 
      37 H7        11.3511    3.3436    3.0260 H         1 <0>         0.0704 
      38 H8        13.3871    5.3825    4.0166 H         1 <0>         0.0498 
      39 H9        11.6265    5.5188    4.2167 H         1 <0>         0.0505 
      40 H10       11.1508    2.6119    4.6371 H         1 <0>         0.0584 
      41 H11       10.4881    3.9433    5.6098 H         1 <0>         0.0702 
      42 H12       11.6359    3.0507    7.6132 H         1 <0>         0.0872 
      43 H13       12.2986    1.7194    6.6405 H         1 <0>         0.0805 
      44 H14        9.5956    1.8870    7.7118 H         1 <0>         0.4058 
      45 H15        8.6802   -1.0621    5.7497 H         1 <0>         0.1008 
      46 H16        8.5906   -0.4652    7.4211 H         1 <0>         0.0999 
      47 H17        6.0742    2.8312    5.1677 H         1 <0>         0.1557 
      48 H18        3.7647    3.7885    4.7263 H         1 <0>         0.1929 
      49 H19        4.3572   -1.4624    6.6052 H         1 <0>         0.4317 
      50 H20       -0.0641   -2.3910    6.6487 H         1 <0>         0.1287 
      51 H21       -0.6515   -4.6205    7.5414 H         1 <0>         0.1326 
      52 H22        3.4929   -5.4880    8.1422 H         1 <0>         0.1342 
      53 H23        4.1036   -3.3407    7.1566 H         1 <0>         0.1410 
      54 H24        1.7770   -7.2451    8.3557 H         1 <0>         0.0777 
      55 H25        0.0604   -6.8592    8.1068 H         1 <0>         0.0771 
      56 H26        0.0175   -5.6360   10.2510 H         1 <0>         0.0623 
      57 H27        1.7394   -5.9992   10.4982 H         1 <0>         0.0572 
      58 H28        0.5452   -7.3153   10.4948 H         1 <0>         0.0578 
@<TRIPOS>BOND
       1        1        2 1        
       2        1       31 1        
       3        1       32 1        
       4        1       33 1        
       5        2        3 1        
       6        2       34 1        
       7        2       35 1        
       8        3        4 1        
       9        3       36 1        
      10        3       37 1        
      11        4        5 1        
      12        4       38 1        
      13        4       39 1        
      14        5        6 1        
      15        6        7 1        
      16        6       40 1        
      17        6       41 1        
      18        7        8 1        
      19        7       42 1        
      20        7       43 1        
      21        8        9 am       
      22        8       44 1        
      23        9       10 2        
      24        9       11 1        
      25       11       12 1        
      26       11       45 1        
      27       11       46 1        
      28       12       13 1        
      29       13       14 2        
      30       13       15 1        
      31       15       19 2        
      32       15       16 1        
      33       16       17 2        
      34       16       47 1        
      35       17       18 1        
      36       17       48 1        
      37       18       19 1        
      38       19       20 1        
      39       20       21 am       
      40       20       49 1        
      41       21       22 2        
      42       21       23 1        
      43       23       28 ar       
      44       23       24 ar       
      45       24       25 ar       
      46       24       50 1        
      47       25       26 ar       
      48       25       51 1        
      49       26       27 ar       
      50       26       29 1        
      51       27       28 ar       
      52       27       52 1        
      53       28       53 1        
      54       29       30 1        
      55       29       54 1        
      56       29       55 1        
      57       30       56 1        
      58       30       57 1        
      59       30       58 1        

