@<TRIPOS>MOLECULE
ZINC02437791_0
   23    24     1     0     0
SMALL
USER_CHARGES
INVALID_CHARGES
 
@<TRIPOS>ATOM
      1 C1         -0.2678    4.8100    3.0851 C.3       1 <1>         0.0823  
      2 N1         -0.2958    4.1655    4.4060 N.pl3     1 <1>        -0.3597  
      3 C2         -0.4814    2.8429    4.7110 C.2       1 <1>         0.1923  
      4 N2         -0.4822    2.5521    5.9985 N.2       1 <1>        -0.3372  
      5 N3         -0.2725    3.8393    6.6322 N.2       1 <1>        -0.0286  
      6 N4         -0.1643    4.8057    5.7003 N.2       1 <1>        -0.0740  
      7 S1         -0.7038    1.6519    3.4207 S.3       1 <1>         0.1305  
      8 C3         -0.9232    0.0000    4.1526 C.3       1 <1>        -0.1544  
      9 C4         -2.1488    0.0000    5.0346 C.2       1 <1>         0.5317  
     10 O1         -3.2706    0.0000    4.5302 O.2       1 <1>        -0.4484  
     11 N5         -2.0152    0.0000    6.3580 N.am      1 <1>        -0.6061  
     12 C5         -3.1262    0.0000    7.1596 C.2       1 <1>         0.2657  
     13 N6         -4.3342   -0.0044    6.6274 N.2       1 <1>        -0.2928  
     14 N7         -5.3701   -0.0167    7.6419 N.2       1 <1>        -0.2434  
     15 C6         -4.8464   -0.0146    8.7979 C.2       1 <1>         0.0321  
     16 S2         -3.0813    0.0000    8.9290 S.3       1 <1>         0.0339  
     17 H1         -1.2241    4.6593    2.5886 H         1 <1>         0.0991  
     18 H2          0.5263    4.3710    2.4849 H         1 <1>         0.1101  
     19 H3         -0.0852    5.8757    3.2061 H         1 <1>         0.1039  
     20 H4         -0.0485   -0.2526    4.7482 H         1 <1>         0.1424  
     21 H5         -1.0476   -0.7349    3.3601 H         1 <1>         0.1426  
     22 H6         -1.0941    0.0000    6.7722 H         1 <1>         0.4348  
     23 H7         -5.4650   -0.0219    9.6831 H         1 <1>         0.2434  
@<TRIPOS>BOND
     1    1    2 1    
     2    1   17 1    
     3    1   18 1    
     4    1   19 1    
     5    2    6 1    
     6    2    3 1    
     7    3    4 2    
     8    3    7 1    
     9    4    5 1    
    10    5    6 2    
    11    7    8 1    
    12    8    9 1    
    13    8   20 1    
    14    8   21 1    
    15    9   10 2    
    16    9   11 am   
    17   11   12 1    
    18   11   22 1    
    19   12   16 1    
    20   12   13 2    
    21   13   14 1    
    22   14   15 2    
    23   15   16 1    
    24   15   23 1    
@<TRIPOS>SUBSTRUCTURE
     1 ****        1 TEMP              0 ****  ****    0 ROOT
@<BUDE>CONF  1 
 -0.2678 4.8100 3.0851
 -0.2958 4.1655 4.4060
 -0.4814 2.8429 4.7110
 -0.4822 2.5521 5.9985
 -0.2725 3.8393 6.6322
 -0.1643 4.8057 5.7003
 -0.7038 1.6519 3.4207
 -0.9232 0.0000 4.1526
 -2.1488 0.0000 5.0346
 -3.2706 0.0000 4.5302
 -2.0152 0.0000 6.3580
 -3.1262 0.0000 7.1596
 -4.3342 -0.0044 6.6274
 -5.3701 -0.0167 7.6419
 -4.8464 -0.0146 8.7979
 -3.0813 0.0000 8.9290
 -1.2241 4.6593 2.5886
 0.5263 4.3710 2.4849
 -0.0852 5.8757 3.2061
 -0.0485 -0.2526 4.7482
 -1.0476 -0.7349 3.3601
2 -1.0941 0.0000 6.7722
 -5.4650 -0.0219 9.6831
@<BUDE>CONF  2  
 -0.2267 -4.8038 3.0837
 -0.2958 -4.1655 4.4060
 -0.4814 -2.8429 4.7110
 -0.4760 -2.5512 5.9983
 -0.2588 -3.8372 6.6318
 -0.1460 -4.8029 5.6996
 -0.7038 -1.6519 3.4207
 -0.9232 0.0000 4.1526
 -2.1488 0.0000 5.0346
 -3.2706 0.0000 4.5302
 -2.0152 0.0000 6.3580
 -3.1262 0.0000 7.1596
 -4.3342 -0.0044 6.6274
 -5.3701 -0.0167 7.6419
 -4.8464 -0.0146 8.7979
 -3.0813 0.0000 8.9290
 0.6080 -4.3873 2.5238
 -1.1535 -4.6204 2.5443
 -0.0833 -5.8754 3.2060
 -1.0476 0.7349 3.3601
 -0.0485 0.2526 4.7482
2 -1.0941 0.0000 6.7722
 -5.4650 -0.0219 9.6831
@<BUDE>CONF  3  
 0.4500 -4.1058 1.7110
 1.1060 -2.7904 1.7226
 0.7328 -1.6519 2.3868
 1.5069 -0.6009 2.1908
 2.5221 -1.0979 1.2826
 2.2946 -2.3936 0.9932
 -0.7038 -1.6519 3.4207
 -0.9232 0.0000 4.1526
 -2.1488 0.0000 5.0346
 -3.2706 0.0000 4.5302
 -2.0152 0.0000 6.3580
 -3.1262 0.0000 7.1596
 -4.3342 -0.0044 6.6274
 -5.3701 -0.0167 7.6419
 -4.8464 -0.0146 8.7979
 -3.0813 0.0000 8.9290
 -0.5567 -4.0047 1.3111
 0.4004 -4.4945 2.7259
 1.0215 -4.7900 1.0874
 -1.0476 0.7349 3.3601
 -0.0485 0.2526 4.7482
2 -1.0941 0.0000 6.7722
 -5.4650 -0.0219 9.6831
