@<TRIPOS>MOLECULE
ZINC03040181_0
   23    23     1     0     0
SMALL
USER_CHARGES
INVALID_CHARGES
 
@<TRIPOS>ATOM
      1 C1          1.7253    1.0945   -0.0014 C.ar      1 <1>        -0.0748  
      2 C2          1.7327    1.0943    1.3984 C.ar      1 <1>        -0.0346  
      3 C3          1.2115    0.0005    2.0999 C.ar      1 <1>        -0.6271  
      4 C4          0.6529   -1.0751    1.3992 C.ar      1 <1>        -0.0346  
      5 C5          0.6451   -1.0723   -0.0007 C.ar      1 <1>        -0.0389  
      6 C6          1.1863    0.0100   -0.7036 C.ar      1 <1>         0.0285  
      7 N1          1.1988    0.0295   -2.1034 N.2       1 <1>         0.0005  
      8 N2          1.6727    0.9776   -2.7660 N.2       1 <1>        -0.6721  
      9 S1          1.6871    1.0000   -4.3657 S.o2      1 <1>         2.7807  
     10 O1          0.3445    0.9418   -4.8545 O.2       1 <1>        -0.9745  
     11 O2          2.3084    2.2054   -4.8192 O.2       1 <1>        -0.9738  
     12 O3          2.4956   -0.2416   -4.8999 O.3       1 <1>        -0.8819  
     13 S2          1.2124    0.0000    3.9400 S.o2      1 <1>         2.7010  
     14 O4          0.0448    0.6741    4.4166 O.2       1 <1>        -0.9531  
     15 O5          2.3794    0.6748    4.4171 O.2       1 <1>        -0.9524  
     16 N3          1.2114   -1.6497    4.5238 N.pl3     1 <1>        -1.2472  
     17 H1          2.1367    1.9336   -0.5428 H         1 <1>         0.1589  
     18 H2          2.1395    1.9363    1.9387 H         1 <1>         0.1583  
     19 H3          0.2289   -1.9061    1.9433 H         1 <1>         0.1632  
     20 H4          0.2179   -1.9102   -0.5315 H         1 <1>         0.1599  
     21 H5          2.0701   -1.0442   -4.5597 H         1 <1>         0.4711  
     22 H6          1.1997   -2.4173    3.8675 H         1 <1>         0.4181  
     23 H7          1.2226   -1.8336    5.5168 H         1 <1>         0.4247  
@<TRIPOS>BOND
     1    1    6 ar   
     2    1    2 ar   
     3    1   17 1    
     4    2    3 ar   
     5    2   18 1    
     6    3    4 ar   
     7    3   13 1    
     8    4    5 ar   
     9    4   19 1    
    10    5    6 ar   
    11    5   20 1    
    12    6    7 1    
    13    7    8 2    
    14    8    9 1    
    15    9   10 2    
    16    9   11 2    
    17    9   12 1    
    18   12   21 1    
    19   13   14 2    
    20   13   15 2    
    21   13   16 1    
    22   16   22 1    
    23   16   23 1    
@<TRIPOS>SUBSTRUCTURE
     1 ****        1 TEMP              0 ****  ****    0 ROOT
@<BUDE>CONF  1  
 1.7253 1.0945 -0.0014
 1.7327 1.0943 1.3984
 1.2115 0.0005 2.0999
 0.6529 -1.0751 1.3992
 0.6451 -1.0723 -0.0007
 1.1863 0.0100 -0.7036
 1.1988 0.0295 -2.1034
 1.6727 0.9776 -2.7660
 1.6871 1.0000 -4.3657
 0.3445 0.9418 -4.8545
 2.3084 2.2054 -4.8192
 2.4956 -0.2416 -4.8999
 1.2124 0.0000 3.9400
 0.0448 0.6741 4.4166
 2.3794 0.6748 4.4171
 1.2114 -1.6497 4.5238
 2.1367 1.9336 -0.5428
 2.1395 1.9363 1.9387
 0.2289 -1.9061 1.9433
 0.2179 -1.9102 -0.5315
 2.0701 -1.0442 -4.5597
 1.1997 -2.4173 3.8675
 1.2226 -1.8336 5.5168
@<BUDE>CONF  2  
 1.7253 1.0945 -0.0014
 1.7327 1.0943 1.3984
 1.2115 0.0005 2.0999
 0.6529 -1.0751 1.3992
 0.6451 -1.0723 -0.0007
 1.1863 0.0100 -0.7036
 1.1988 0.0295 -2.1034
 1.6727 0.9776 -2.7660
 1.6871 1.0000 -4.3657
 2.4505 -0.1078 -4.8502
 0.3467 0.9064 -4.8550
 2.3367 2.3450 -4.8652
 1.2124 0.0000 3.9400
 0.0448 0.6741 4.4166
 2.3794 0.6748 4.4171
 1.2114 -1.6497 4.5238
 2.1367 1.9336 -0.5428
 2.1395 1.9363 1.9387
 0.2289 -1.9061 1.9433
 0.2179 -1.9102 -0.5315
 1.8167 3.0801 -4.5043
 1.1997 -2.4173 3.8675
 1.2226 -1.8336 5.5168
@<BUDE>CONF  3  
 1.7253 1.0945 -0.0014
 1.7327 1.0943 1.3984
 1.2115 0.0005 2.0999
 0.6529 -1.0751 1.3992
 0.6451 -1.0723 -0.0007
 1.1863 0.0100 -0.7036
 1.1988 0.0295 -2.1034
 1.6727 0.9776 -2.7660
 1.6871 1.0000 -4.3657
 0.3445 0.9418 -4.8545
 2.3084 2.2054 -4.8192
 2.4956 -0.2416 -4.8999
 1.2124 0.0000 3.9400
 0.0448 0.6741 4.4166
 2.3794 0.6748 4.4171
 1.2114 -1.6497 4.5238
 2.1367 1.9336 -0.5428
 2.1395 1.9363 1.9387
 0.2289 -1.9061 1.9433
 0.2179 -1.9102 -0.5315
 2.4907 -0.2069 -5.8693
 1.1997 -2.4173 3.8675
 1.2226 -1.8336 5.5168
@<BUDE>CONF  4  
 1.7253 1.0945 -0.0014
 1.7327 1.0943 1.3984
 1.2115 0.0005 2.0999
 0.6529 -1.0751 1.3992
 0.6451 -1.0723 -0.0007
 1.1863 0.0100 -0.7036
 1.1988 0.0295 -2.1034
 1.6727 0.9776 -2.7660
 1.6871 1.0000 -4.3657
 2.4505 -0.1078 -4.8502
 0.3467 0.9064 -4.8550
 2.3367 2.3450 -4.8652
 1.2124 0.0000 3.9400
 0.0448 0.6741 4.4166
 2.3794 0.6748 4.4171
 1.2114 -1.6497 4.5238
 2.1367 1.9336 -0.5428
 2.1395 1.9363 1.9387
 0.2289 -1.9061 1.9433
 0.2179 -1.9102 -0.5315
 2.3344 2.3358 -5.8352
 1.1997 -2.4173 3.8675
 1.2226 -1.8336 5.5168
