@<TRIPOS>MOLECULE
ZINC04389476_0
   24    24     1     0     0
SMALL
USER_CHARGES
INVALID_CHARGES
 
@<TRIPOS>ATOM
      1 C1         -0.0313    0.7059   -2.9772 C.3       1 <1>        -0.6382  
      2 S1          0.3274    1.7266   -1.5263 S.o2      1 <1>         2.5018  
      3 O1          1.4530    2.5654   -1.7989 O.2       1 <1>        -0.9019  
      4 O2         -0.8097    2.5379   -1.2202 O.2       1 <1>        -0.9041  
      5 C2          0.7076    0.6391   -0.0915 C.2       1 <1>        -0.4511  
      6 C3          1.0513    1.0949    1.2739 C.2       1 <1>        -0.0263  
      7 C4          1.2218    0.0006    2.0282 C.2       1 <1>        -0.7363  
      8 S2          0.9887   -1.5016    1.1217 S.3       1 <1>         0.4679  
      9 N1          0.6748   -0.6251   -0.2162 N.2       1 <1>        -0.3082  
     10 S3          1.6606    0.0000    3.8151 S.o2      1 <1>         2.5123  
     11 O3          0.6400    0.6741    4.5559 O.2       1 <1>        -0.9117  
     12 O4          2.9077    0.6747    4.0008 O.2       1 <1>        -0.8963  
     13 C5          1.8034   -1.7062    4.4019 C.3       1 <1>        -0.6438  
     14 C6          1.1881    2.4855    1.7618 C.2       1 <1>         0.5713  
     15 O5          1.4782    2.6984    2.9380 O.2       1 <1>        -0.4923  
     16 N2          0.9974    3.5039    0.9281 N.am      1 <1>        -0.8177  
     17 H1         -0.8954    0.0772   -2.7729 H         1 <1>         0.1384  
     18 H2          0.8294    0.0790   -3.2006 H         1 <1>         0.1477  
     19 H3         -0.2430    1.3490   -3.8288 H         1 <1>         0.1434  
     20 H4          0.8578   -2.2220    4.2486 H         1 <1>         0.1478  
     21 H5          2.0491   -1.7052    5.4618 H         1 <1>         0.1368  
     22 H6          2.5890   -2.2152    3.8473 H         1 <1>         0.1390  
     23 H7          0.7593    3.3279   -0.0375 H         1 <1>         0.4024  
     24 H8          1.0907    4.4529    1.2610 H         1 <1>         0.4191  
@<TRIPOS>BOND
     1    1    2 1    
     2    1   17 1    
     3    1   18 1    
     4    1   19 1    
     5    2    3 2    
     6    2    4 2    
     7    2    5 1    
     8    5    9 2    
     9    5    6 1    
    10    6    7 2    
    11    6   14 1    
    12    7    8 1    
    13    7   10 1    
    14    8    9 1    
    15   10   11 2    
    16   10   12 2    
    17   10   13 1    
    18   13   20 1    
    19   13   21 1    
    20   13   22 1    
    21   14   15 2    
    22   14   16 am   
    23   16   23 1    
    24   16   24 1    
@<TRIPOS>SUBSTRUCTURE
     1 ****        1 TEMP              0 ****  ****    0 ROOT
@<BUDE>CONF 1  
 -0.0313 0.7059 -2.9772
 0.3274 1.7266 -1.5263
 1.4530 2.5654 -1.7989
 -0.8097 2.5379 -1.2202
 0.7076 0.6391 -0.0915
 1.0513 1.0949 1.2739
 1.2218 0.0006 2.0282
 0.9887 -1.5016 1.1217
 0.6748 -0.6251 -0.2162
 1.6606 0.0000 3.8151
 0.6400 0.6741 4.5559
 2.9077 0.6747 4.0008
 1.8034 -1.7062 4.4019
 1.1881 2.4855 1.7618
 1.4782 2.6984 2.9380
 0.9974 3.5039 0.9281
 -0.8954 0.0772 -2.7729
 0.8294 0.0790 -3.2006
 -0.2430 1.3490 -3.8288
 0.8578 -2.2220 4.2486
 2.0491 -1.7052 5.4618
 2.5890 -2.2152 3.8473
 0.7593 3.3279 -0.0375
 1.0907 4.4529 1.2610
@<BUDE>CONF  2  
 0.5983 -0.3212 -3.1322
 1.8188 -0.8227 -1.8934
 1.9807 -2.2430 -1.9302
 3.0711 -0.1920 -2.1742
 1.2390 -0.3157 -0.2224
 1.9575 -0.5462 1.0508
 1.2218 0.0006 2.0282
 -0.2695 0.7439 1.4314
 0.1382 0.3040 -0.0841
 1.6606 0.0000 3.8151
 0.6400 0.6741 4.5559
 2.9077 0.6747 4.0008
 1.8034 -1.7062 4.4019
 3.2486 -1.2403 1.2545
 3.7177 -1.3460 2.3866
 3.9009 -1.7494 0.2133
 0.4853 0.7607 -3.1117
 -0.3575 -0.7907 -2.9094
 0.9348 -0.6328 -4.1188
 0.8578 -2.2220 4.2486
 2.0491 -1.7052 5.4618
 2.5890 -2.2152 3.8473
 3.5147 -1.6621 -0.7158
 4.7820 -2.2231 0.3523
@<BUDE>CONF  3  
 -0.0313 0.7059 -2.9772
 0.3274 1.7266 -1.5263
 1.4530 2.5654 -1.7989
 -0.8097 2.5379 -1.2202
 0.7076 0.6391 -0.0915
 1.0513 1.0949 1.2739
 1.2218 0.0006 2.0282
 0.9887 -1.5016 1.1217
 0.6748 -0.6251 -0.2162
 1.6606 0.0000 3.8151
 0.6400 0.6741 4.5559
 2.9077 0.6747 4.0008
 1.8034 -1.7062 4.4019
 1.1881 2.4855 1.7618
 1.0116 3.4274 0.9907
 1.5016 2.7157 3.0335
 -0.8954 0.0772 -2.7729
 0.8294 0.0790 -3.2006
 -0.2430 1.3490 -3.8288
 0.8578 -2.2220 4.2486
 2.0491 -1.7052 5.4618
 2.5890 -2.2152 3.8473
 1.6462 1.9415 3.6657
 1.5949 3.6647 3.3664
