@<TRIPOS>MOLECULE
ZINC04900664_0
   34    34     1     0     0
SMALL
USER_CHARGES
INVALID_CHARGES
 
@<TRIPOS>ATOM
      1 C1         -2.2074    2.4297    0.0824 C.3       1 <1>        -0.1483  
      2 C2         -1.9978    1.7062   -1.2447 C.3       1 <1>        -0.6308  
      3 S1         -1.4849    0.0000   -0.9259 S.o2      1 <1>         2.6056  
      4 O1         -2.5072   -0.6741   -0.1874 O.2       1 <1>        -0.9507  
      5 O2         -1.2722   -0.6747   -2.1687 O.2       1 <1>        -0.9507  
      6 N1         -0.0005   -0.0006    0.0009 N.pl3     1 <1>        -1.0001  
      7 C3          1.0235    1.0582   -0.1966 C.3       1 <1>         0.1048  
      8 C4          2.3644    0.4012   -0.5726 C.3       1 <1>         0.1046  
      9 N2          2.6387   -0.6897    0.3738 N.pl3     1 <1>        -1.0001  
     10 C5          1.6306   -1.7413    0.5703 C.3       1 <1>         0.1047  
     11 C6          0.2858   -1.0910    0.9442 C.3       1 <1>         0.1046  
     12 S2          4.0832   -0.6525    1.3610 S.o2      1 <1>         2.6056  
     13 O3          4.3908   -1.9768    1.8044 O.2       1 <1>        -0.9507  
     14 O4          3.8634    0.1915    2.4943 O.2       1 <1>        -0.9507  
     15 C7          5.4634   -0.0062    0.3848 C.3       1 <1>        -0.6308  
     16 C8          5.7078   -0.9178   -0.8145 C.3       1 <1>        -0.1483  
     17 H1         -1.2733    2.4410    0.6400 H         1 <1>         0.0728  
     18 H2         -2.9696    1.9116    0.6607 H         1 <1>         0.0728  
     19 H3         -2.5287    3.4514   -0.1091 H         1 <1>         0.0832  
     20 H4         -2.9282    1.7052   -1.8088 H         1 <1>         0.1313  
     21 H5         -1.2259    2.2152   -1.8180 H         1 <1>         0.1314  
     22 H6          1.1274    1.6117    0.7342 H         1 <1>         0.1079  
     23 H7          0.7271    1.7585   -0.9746 H         1 <1>         0.0793  
     24 H8          2.2953   -0.0321   -1.5681 H         1 <1>         0.1077  
     25 H9          3.1650    1.1379   -0.5713 H         1 <1>         0.0793  
     26 H10         1.5284   -2.2777   -0.3707 H         1 <1>         0.1080  
     27 H11         1.9350   -2.4460    1.3413 H         1 <1>         0.0793  
     28 H12         0.3517   -0.6557    1.9392 H         1 <1>         0.0791  
     29 H13        -0.5083   -1.8348    0.9449 H         1 <1>         0.1080  
     30 H14         6.3583    0.0294    1.0024 H         1 <1>         0.1314  
     31 H15         5.2224    0.9959    0.0363 H         1 <1>         0.1314  
     32 H16         4.8165   -0.9426   -1.4379 H         1 <1>         0.0728  
     33 H17         5.9348   -1.9228   -0.4650 H         1 <1>         0.0728  
     34 H18         6.5460   -0.5366   -1.3940 H         1 <1>         0.0832  
@<TRIPOS>BOND
     1    1    2 1    
     2    1   17 1    
     3    1   18 1    
     4    1   19 1    
     5    2    3 1    
     6    2   20 1    
     7    2   21 1    
     8    3    4 2    
     9    3    5 2    
    10    3    6 1    
    11    6   11 1    
    12    6    7 1    
    13    7    8 1    
    14    7   22 1    
    15    7   23 1    
    16    8    9 1    
    17    8   24 1    
    18    8   25 1    
    19    9   10 1    
    20    9   12 1    
    21   10   11 1    
    22   10   26 1    
    23   10   27 1    
    24   11   28 1    
    25   11   29 1    
    26   12   13 2    
    27   12   14 2    
    28   12   15 1    
    29   15   16 1    
    30   15   30 1    
    31   15   31 1    
    32   16   32 1    
    33   16   33 1    
    34   16   34 1    
@<TRIPOS>SUBSTRUCTURE
     1 ****        1 TEMP              0 ****  ****    0 ROOT
@<BUDE>CONF  1
 -2.2074 2.4297 0.0824
 -1.9978 1.7062 -1.2447
 -1.4849 0.0000 -0.9259
 -2.5072 -0.6741 -0.1874
 -1.2722 -0.6747 -2.1687
 -0.0005 -0.0006 0.0009
 1.0235 1.0582 -0.1966
 2.3644 0.4012 -0.5726
 2.6387 -0.6897 0.3738
 1.6306 -1.7413 0.5703
 0.2858 -1.0910 0.9442
 4.0832 -0.6525 1.3610
 4.3908 -1.9768 1.8044
 3.8634 0.1915 2.4943
 5.4634 -0.0062 0.3848
 5.7078 -0.9178 -0.8145
 -1.2733 2.4410 0.6400
 -2.9696 1.9116 0.6607
 -2.5287 3.4514 -0.1091
 -2.9282 1.7052 -1.8088
 -1.2259 2.2152 -1.8180
 1.1274 1.6117 0.7342
 0.7271 1.7585 -0.9746
 2.2953 -0.0321 -1.5681
 3.1650 1.1379 -0.5713
 1.5284 -2.2777 -0.3707
 1.9350 -2.4460 1.3413
 0.3517 -0.6557 1.9392
 -0.5083 -1.8348 0.9449
 6.3583 0.0294 1.0024
 5.2224 0.9959 0.0363
 4.8165 -0.9426 -1.4379
 5.9348 -1.9228 -0.4650
 6.5460 -0.5366 -1.3940
@<BUDE>CONF  2  
 -2.2074 2.4297 0.0824
 -1.9978 1.7062 -1.2447
 -1.4849 0.0000 -0.9259
 -2.5072 -0.6741 -0.1874
 -1.2722 -0.6747 -2.1687
 -0.0005 -0.0006 0.0009
 1.0235 1.0582 -0.1966
 2.3644 0.4012 -0.5726
 2.6387 -0.6897 0.3738
 1.6306 -1.7413 0.5703
 0.2858 -1.0910 0.9442
 4.0832 -0.6525 1.3610
 4.3908 -1.9768 1.8044
 3.8634 0.1915 2.4943
 5.4634 -0.0062 0.3848
 6.7230 0.0262 1.2457
 -1.2733 2.4410 0.6400
 -2.9696 1.9116 0.6607
 -2.5287 3.4514 -0.1091
 -2.9282 1.7052 -1.8088
 -1.2259 2.2152 -1.8180
 1.1274 1.6117 0.7342
 0.7271 1.7585 -0.9746
 2.2953 -0.0321 -1.5681
 3.1650 1.1379 -0.5713
 1.5284 -2.2777 -0.3707
 1.9350 -2.4460 1.3413
 0.3517 -0.6557 1.9392
 -0.5083 -1.8348 0.9449
 5.2279 1.0010 0.0474
 5.6291 -0.6487 -0.4775
 6.9645 -0.9831 1.5720
 6.5513 0.6577 2.1148
 7.5496 0.4272 0.6629
@<BUDE>CONF  3  
 -0.9070 2.4255 -2.0327
 -1.9978 1.7062 -1.2447
 -1.4849 0.0000 -0.9259
 -2.5072 -0.6741 -0.1874
 -1.2722 -0.6747 -2.1687
 -0.0005 -0.0006 0.0009
 -0.0094 0.5911 1.2253
 1.3865 1.1292 1.5901
 2.3503 0.0206 1.5350
 2.0858 -1.1181 0.6437
 1.2067 -0.6494 -0.5305
 3.7173 -0.0089 2.6272
 4.7792 -0.7658 2.0401
 3.3262 -0.6136 3.8626
 4.2795 1.6838 2.9340
 5.4716 1.6581 3.8865
 -0.7544 1.9199 -2.9840
 0.0194 2.4136 -1.4622
 -1.2095 3.4550 -2.2128
 -2.1602 2.2182 -0.2985
 -2.9211 1.7051 -1.8202
 -0.3197 -0.1610 1.9476
 -0.7335 1.4026 1.2506
 1.6955 1.8747 0.8604
 1.3724 1.5936 2.5739
 3.0440 -1.4686 0.2661
 1.6008 -1.9349 1.1741
 0.8870 -1.5086 -1.1165
 1.7660 0.0217 -1.1790
 3.4706 2.2588 3.3799
 4.5760 2.1430 1.9933
 6.2842 1.0935 3.4342
 5.1778 1.1860 4.8216
 5.8013 2.6765 4.0815
@<BUDE>CONF  4  
 -0.9070 2.4255 -2.0327
 -1.9978 1.7062 -1.2447
 -1.4849 0.0000 -0.9259
 -2.5072 -0.6741 -0.1874
 -1.2722 -0.6747 -2.1687
 -0.0005 -0.0006 0.0009
 0.2790 1.0674 0.9958
 0.5254 0.4239 2.3729
 1.4886 -0.6754 2.2160
 1.2152 -1.7362 1.2357
 0.9651 -1.0994 -0.1439
 2.8664 -0.7947 3.2882
 3.9420 -0.0074 2.7702
 3.2778 -2.1608 3.3843
 2.4071 -0.1849 4.9293
 1.2710 -1.0371 5.4879
 -0.7544 1.9199 -2.9840
 0.0194 2.4136 -1.4622
 -1.2095 3.4550 -2.2128
 -2.1602 2.2182 -0.2985
 -2.9211 1.7051 -1.8202
 -0.5850 1.7271 1.0417
 1.1434 1.6625 0.7090
 0.9640 1.1561 3.0478
 -0.4098 0.0732 2.8042
 2.0946 -2.3750 1.1897
 0.3606 -2.3412 1.5313
 0.5271 -1.8354 -0.8148
 1.9009 -0.7518 -0.5767
 2.0810 0.8502 4.8526
 3.2675 -0.2467 5.5923
 1.6024 -2.0696 5.5758
 0.4162 -0.9858 4.8168
 0.9859 -0.6623 6.4687
@<BUDE>CONF  5  
 -3.2827 1.7048 -2.0678
 -1.9978 1.7062 -1.2447
 -1.4849 0.0000 -0.9259
 -2.5072 -0.6741 -0.1874
 -1.2722 -0.6747 -2.1687
 -0.0005 -0.0006 0.0009
 0.9205 0.9643 -0.2639
 1.7647 1.2810 0.9844
 2.4025 0.0416 1.4513
 1.7592 -1.2492 1.1668
 0.2415 -1.0367 1.0151
 3.8305 0.1157 2.4602
 4.5094 -1.1422 2.4170
 3.4470 0.4054 3.8070
 4.9308 1.4175 1.8518
 6.1761 1.4821 2.7316
 -4.0687 1.1987 -1.5111
 -3.1101 1.1841 -3.0074
 -3.5838 2.7304 -2.2708
 -1.2143 2.2230 -1.7950
 -2.1730 2.2143 -0.2987
 0.3787 1.8522 -0.5828
 1.5719 0.6554 -1.0786
 2.5540 1.9838 0.7259
 1.1467 1.7259 1.7615
 2.1715 -1.6223 0.2317
 1.9607 -1.9762 1.9507
 -0.1758 -0.6806 1.9546
 -0.2483 -1.9721 0.7526
 4.4129 2.3738 1.8843
 5.2212 1.1963 0.8268
 6.6998 0.5295 2.6883
 5.8833 1.6893 3.7587
 6.8314 2.2736 2.3739
@<BUDE>CONF  6  
 -3.2827 1.7048 -2.0678
 -1.9978 1.7062 -1.2447
 -1.4849 0.0000 -0.9259
 -2.5072 -0.6741 -0.1874
 -1.2722 -0.6747 -2.1687
 -0.0005 -0.0006 0.0009
 0.9205 0.9643 -0.2639
 1.7647 1.2810 0.9844
 2.4025 0.0416 1.4513
 1.7592 -1.2492 1.1668
 0.2415 -1.0367 1.0151
 3.8305 0.1157 2.4602
 4.5094 -1.1422 2.4170
 3.4470 0.4054 3.8070
 4.9308 1.4175 1.8518
 5.3530 1.0977 0.4205
 -4.0687 1.1987 -1.5111
 -3.1101 1.1841 -3.0074
 -3.5838 2.7304 -2.2708
 -1.2143 2.2230 -1.7950
 -2.1730 2.2143 -0.2987
 0.3787 1.8522 -0.5828
 1.5719 0.6554 -1.0786
 2.5540 1.9838 0.7259
 1.1467 1.7259 1.7615
 2.1715 -1.6223 0.2317
 1.9607 -1.9762 1.9507
 -0.1758 -0.6806 1.9546
 -0.2483 -1.9721 0.7526
 5.8124 1.4725 2.4869
 4.4085 2.3717 1.8718
 4.4717 1.0553 -0.2160
 5.8628 0.1367 0.3996
 6.0251 1.8734 0.0595
