@<TRIPOS>MOLECULE
ZINC51162372_0
   36    35     1     0     0
SMALL
USER_CHARGES
INVALID_CHARGES
 
@<TRIPOS>ATOM
      1 C1         -2.1598   -1.2456   -0.0001 C.3       1 <1>        -0.1461  
      2 C2         -2.1603   -1.2465    1.5259 C.3       1 <1>        -0.1179  
      3 C3         -1.4400    0.0011    2.0353 C.3       1 <1>        -0.6290  
      4 S1         -1.4406    0.0000    3.8453 S.o2      1 <1>         2.6107  
      5 O1         -0.7665    1.1675    4.3220 O.2       1 <1>        -0.9541  
      6 O2         -0.7660   -1.1670    4.3224 O.2       1 <1>        -0.9552  
      7 N1         -3.0903    0.0010    4.4291 N.pl3     1 <1>        -1.1210  
      8 C4         -4.0273    1.0412    3.9813 C.3       1 <1>         0.1119  
      9 C5         -3.9994    2.2089    4.9664 C.3       1 <1>        -0.1350  
     10 C6         -4.9734    3.2903    4.5008 C.3       1 <1>         0.1119  
     11 N2         -4.5668    3.7766    3.1746 N.pl3     1 <1>        -1.1211  
     12 S2         -3.5073    5.1629    3.0385 S.o2      1 <1>         2.6116  
     13 O3         -4.1353    6.3019    3.6328 O.2       1 <1>        -0.9552  
     14 O4         -2.2769    4.8894    3.7140 O.2       1 <1>        -0.9541  
     15 C7         -3.1759    5.4985    1.2911 C.3       1 <1>        -0.6310  
     16 C8         -2.4899    4.2887    0.6629 C.3       1 <1>        -0.1486  
     17 H1         -1.1338   -1.2588   -0.3617 H         1 <1>         0.0593  
     18 H2         -2.6842   -2.1271   -0.3628 H         1 <1>         0.0593  
     19 H3         -2.6609   -0.3502   -0.3617 H         1 <1>         0.0641  
     20 H4         -1.6470   -2.1344    1.8888 H         1 <1>         0.0798  
     21 H5         -3.1859   -1.2458    1.8888 H         1 <1>         0.0797  
     22 H6         -1.9528    0.8898    1.6736 H         1 <1>         0.1340  
     23 H7         -0.4139    0.0013    1.6736 H         1 <1>         0.1317  
     24 H8         -3.3980   -0.7132    5.0736 H         1 <1>         0.4200  
     25 H9         -3.7340    1.3918    2.9939 H         1 <1>         0.0708  
     26 H10        -5.0327    0.6278    3.9361 H         1 <1>         0.0862  
     27 H11        -4.2922    1.8569    5.9533 H         1 <1>         0.0834  
     28 H12        -2.9934    2.6209    5.0111 H         1 <1>         0.0834  
     29 H13        -5.9767    2.8732    4.4429 H         1 <1>         0.0863  
     30 H14        -4.9635    4.1158    5.2094 H         1 <1>         0.0707  
     31 H15        -4.8991    3.3106    2.3425 H         1 <1>         0.4201  
     32 H16        -4.1141    5.6924    0.7755 H         1 <1>         0.1307  
     33 H17        -2.5279    6.3683    1.2060 H         1 <1>         0.1331  
     34 H18        -3.1440    3.4224    0.7374 H         1 <1>         0.0831  
     35 H19        -2.2788    4.4954   -0.3841 H         1 <1>         0.0732  
     36 H20        -1.5588    4.0871    1.1884 H         1 <1>         0.0733  
@<TRIPOS>BOND
     1    1    2 1    
     2    1   17 1    
     3    1   18 1    
     4    1   19 1    
     5    2    3 1    
     6    2   20 1    
     7    2   21 1    
     8    3    4 1    
     9    3   22 1    
    10    3   23 1    
    11    4    5 2    
    12    4    6 2    
    13    4    7 1    
    14    7    8 1    
    15    7   24 1    
    16    8    9 1    
    17    8   25 1    
    18    8   26 1    
    19    9   10 1    
    20    9   27 1    
    21    9   28 1    
    22   10   11 1    
    23   10   29 1    
    24   10   30 1    
    25   11   12 1    
    26   11   31 1    
    27   12   13 2    
    28   12   14 2    
    29   12   15 1    
    30   15   16 1    
    31   15   32 1    
    32   15   33 1    
    33   16   34 1    
    34   16   35 1    
    35   16   36 1    
@<TRIPOS>SUBSTRUCTURE
     1 ****        1 TEMP              0 ****  ****    0 ROOT
@<BUDE>CONF  1   
 -2.1598 -1.2456 -0.0001
 -2.1603 -1.2465 1.5259
 -1.4400 0.0011 2.0353
 -1.4406 0.0000 3.8453
 -0.7665 1.1675 4.3220
 -0.7660 -1.1670 4.3224
 -3.0903 0.0010 4.4291
 -4.0273 1.0412 3.9813
 -3.9994 2.2089 4.9664
 -4.9734 3.2903 4.5008
 -4.5668 3.7766 3.1746
 -3.5073 5.1629 3.0385
 -4.1353 6.3019 3.6328
 -2.2769 4.8894 3.7140
 -3.1759 5.4985 1.2911
 -2.4899 4.2887 0.6629
 -1.1338 -1.2588 -0.3617
 -2.6842 -2.1271 -0.3628
 -2.6609 -0.3502 -0.3617
 -1.6470 -2.1344 1.8888
 -3.1859 -1.2458 1.8888
 -1.9528 0.8898 1.6736
 -0.4139 0.0013 1.6736
 -3.3980 -0.7132 5.0736
 -3.7340 1.3918 2.9939
 -5.0327 0.6278 3.9361
 -4.2922 1.8569 5.9533
 -2.9934 2.6209 5.0111
 -5.9767 2.8732 4.4429
 -4.9635 4.1158 5.2094
 -4.8991 3.3106 2.3425
 -4.1141 5.6924 0.7755
 -2.5279 6.3683 1.2060
 -3.1440 3.4224 0.7374
 -2.2788 4.4954 -0.3841
 -1.5588 4.0871 1.1884
@<BUDE>CONF  1   
 -2.1760 1.2406 0.0014
 -2.1765 1.2397 1.5274
 -1.4400 0.0011 2.0353
 -1.4406 0.0000 3.8453
 -0.7665 1.1675 4.3220
 -0.7660 -1.1670 4.3224
 -3.0903 0.0010 4.4291
 -4.0238 -1.0479 3.9944
 -3.9922 -2.2030 4.9942
 -4.9626 -3.2933 4.5424
 -4.5544 -3.7951 3.2223
 -3.4903 -5.1794 3.1038
 -2.2477 -4.8807 3.7454
 -4.0996 -6.3040 3.7432
 -3.1933 -5.5632 1.3601
 -2.5271 -4.3684 0.6836
 -2.6889 0.3524 -0.3613
 -2.6889 2.1293 -0.3603
 -1.1500 1.2407 -0.3603
 -3.2020 1.2253 1.8902
 -1.6748 2.1338 1.8913
 -0.4140 0.0146 1.6736
 -1.9412 -0.8939 1.6726
 -3.4004 0.7223 5.0645
 -5.0306 -0.6384 3.9443
 -3.7295 -1.4099 3.0115
 -2.9850 -2.6111 5.0440
 -4.2859 -1.8395 5.9768
 -4.9499 -4.1100 5.2613
 -5.9673 -2.8804 4.4794
 -4.8882 -3.3406 2.3844
 -2.5424 -6.4319 1.2864
 -4.1408 -5.7764 0.8699
 -1.5738 -4.1640 1.1667
 -2.3606 -4.5941 -0.3676
 -3.1726 -3.4969 0.7703
@<BUDE>CONF  1   
 -2.1598 -1.2456 -0.0001
 -2.1603 -1.2465 1.5259
 -1.4400 0.0011 2.0353
 -1.4406 0.0000 3.8453
 -0.7665 1.1675 4.3220
 -0.7660 -1.1670 4.3224
 -3.0903 0.0010 4.4291
 -3.3579 -0.0153 5.8744
 -3.5132 -1.4603 6.3464
 -4.6892 -2.1095 5.6181
 -4.8385 -3.4996 6.0722
 -4.0390 -4.7932 5.2060
 -2.6221 -4.6408 5.3250
 -4.4321 -6.0512 5.7606
 -4.5092 -4.7291 3.4594
 -6.0193 -4.9094 3.3331
 -1.1338 -1.2588 -0.3617
 -2.6842 -2.1271 -0.3628
 -2.6609 -0.3502 -0.3617
 -1.6470 -2.1344 1.8888
 -3.1859 -1.2458 1.8888
 -1.9528 0.8898 1.6736
 -0.4139 0.0013 1.6736
 -3.8579 0.0127 3.7728
 -2.5286 0.4519 6.4014
 -4.2743 0.5343 6.0791
 -2.6015 -2.0123 6.1283
 -3.6980 -1.4730 7.4185
 -5.6002 -1.5562 5.8363
 -4.5035 -2.0953 4.5461
 -5.4025 -3.7075 6.8838
 -4.2222 -3.7661 3.0423
 -4.0018 -5.5251 2.9185
 -6.5255 -4.1058 3.8640
 -6.3002 -4.8842 2.2824
 -6.3068 -5.8666 3.7633
@<BUDE>CONF  1   
 0.0015 -0.0167 0.0014
 0.0010 -0.0175 1.5274
 -1.4400 0.0011 2.0353
 -1.4406 0.0000 3.8453
 -0.7665 1.1675 4.3220
 -0.7660 -1.1670 4.3224
 -3.0903 0.0010 4.4291
 -4.0273 1.0412 3.9813
 -3.9994 2.2089 4.9664
 -4.9734 3.2903 4.5008
 -4.5668 3.7766 3.1746
 -3.5073 5.1629 3.0385
 -4.1353 6.3019 3.6328
 -2.2769 4.8894 3.7140
 -3.1759 5.4985 1.2911
 -2.4899 4.2887 0.6629
 -0.4879 0.8852 -0.3603
 1.0272 -0.0433 -0.3603
 -0.5345 -0.8911 -0.3613
 0.5245 0.8639 1.8913
 0.5012 -0.9129 1.8902
 -1.9645 -0.8804 1.6726
 -1.9412 0.8964 1.6736
 -3.3980 -0.7132 5.0736
 -3.7340 1.3918 2.9939
 -5.0327 0.6278 3.9361
 -4.2922 1.8569 5.9533
 -2.9934 2.6209 5.0111
 -5.9767 2.8732 4.4429
 -4.9635 4.1158 5.2094
 -4.8991 3.3106 2.3425
 -4.1141 5.6924 0.7755
 -2.5279 6.3683 1.2060
 -3.1440 3.4224 0.7374
 -2.2788 4.4954 -0.3841
 -1.5588 4.0871 1.1884
@<BUDE>CONF  1   
 -2.1760 1.2406 0.0014
 -2.1765 1.2397 1.5274
 -1.4400 0.0011 2.0353
 -1.4406 0.0000 3.8453
 -0.7665 1.1675 4.3220
 -0.7660 -1.1670 4.3224
 -3.0903 0.0010 4.4291
 -3.3579 -0.0153 5.8744
 -3.4991 1.4191 6.3815
 -4.6685 2.0974 5.6694
 -4.8043 3.4774 6.1573
 -3.9920 4.7838 5.3229
 -4.3593 6.0305 5.9192
 -2.5767 4.6052 5.4231
 -4.4797 4.7806 3.5799
 -5.9877 4.9888 3.4741
 -2.6889 0.3524 -0.3613
 -2.6889 2.1293 -0.3603
 -1.1500 1.2407 -0.3603
 -3.2020 1.2253 1.8902
 -1.6748 2.1338 1.8913
 -0.4140 0.0146 1.6736
 -1.9412 -0.8939 1.6726
 -3.8579 0.0127 3.7728
 -4.2798 -0.5606 6.0657
 -2.5334 -0.5035 6.3897
 -3.6841 1.4075 7.4535
 -2.5818 1.9673 6.1770
 -4.4828 2.1077 4.5973
 -5.5849 1.5478 5.8740
 -5.3663 3.6710 6.9738
 -3.9645 5.5845 3.0583
 -4.2124 3.8262 3.1309
 -6.2522 5.9490 3.9122
 -6.2828 4.9736 2.4271
 -6.5015 4.1920 4.0080
@<BUDE>CONF  1   
 0.0015 -0.0167 0.0014
 0.0010 -0.0175 1.5274
 -1.4400 0.0011 2.0353
 -1.4406 0.0000 3.8453
 -0.7665 1.1675 4.3220
 -0.7660 -1.1670 4.3224
 -3.0903 0.0010 4.4291
 -3.3579 -0.0153 5.8744
 -3.5132 -1.4603 6.3464
 -3.7914 -1.4772 7.8488
 -3.9408 -2.8673 8.3029
 -2.5510 -3.7452 8.9034
 -1.5638 -3.8358 7.8728
 -2.0031 -3.0558 10.0300
 -3.0591 -5.4094 9.4016
 -1.8472 -6.1749 9.9252
 -0.4879 0.8852 -0.3603
 1.0272 -0.0433 -0.3603
 -0.5345 -0.8911 -0.3613
 0.5245 0.8639 1.8913
 0.5012 -0.9129 1.8902
 -1.9645 -0.8804 1.6726
 -1.9412 0.8964 1.6736
 -3.8579 0.0127 3.7728
 -2.5286 0.4519 6.4014
 -4.2743 0.5343 6.0791
 -4.3422 -1.9265 5.8183
 -2.5965 -2.0089 6.1404
 -2.9621 -1.0100 8.3759
 -4.7078 -0.9276 8.0535
 -4.8454 -3.3151 8.2682
 -3.8106 -5.3391 10.1851
 -3.4763 -5.9326 8.5437
 -1.4384 -5.6575 10.7906
 -2.1500 -7.1797 10.2122
 -1.0906 -6.2323 9.1453
@<BUDE>CONF  1   
 -2.1598 -1.2456 -0.0001
 -2.1603 -1.2465 1.5259
 -1.4400 0.0011 2.0353
 -1.4406 0.0000 3.8453
 -0.7665 1.1675 4.3220
 -0.7660 -1.1670 4.3224
 -3.0903 0.0010 4.4291
 -3.3579 -0.0153 5.8744
 -3.5132 -1.4603 6.3464
 -4.6892 -2.1095 5.6181
 -4.8385 -3.4996 6.0722
 -4.0390 -4.7932 5.2060
 -4.5165 -4.8299 3.8586
 -2.6274 -4.5645 5.2063
 -4.3958 -6.3715 6.0170
 -3.6986 -7.4994 5.2617
 -1.1338 -1.2588 -0.3617
 -2.6842 -2.1271 -0.3628
 -2.6609 -0.3502 -0.3617
 -1.6470 -2.1344 1.8888
 -3.1859 -1.2458 1.8888
 -1.9528 0.8898 1.6736
 -0.4139 0.0013 1.6736
 -3.8579 0.0127 3.7728
 -2.5286 0.4519 6.4014
 -4.2743 0.5343 6.0791
 -2.6015 -2.0123 6.1283
 -3.6980 -1.4730 7.4185
 -5.6002 -1.5562 5.8363
 -4.5035 -2.0953 4.5461
 -5.4025 -3.7075 6.8838
 -4.0327 -6.3420 7.0421
 -5.4700 -6.5438 6.0167
 -2.6235 -7.3325 5.2734
 -3.9239 -8.4496 5.7413
 -4.0521 -7.5189 4.2329
@<BUDE>CONF  1   
 -2.1760 1.2406 0.0014
 -2.1765 1.2397 1.5274
 -1.4400 0.0011 2.0353
 -1.4406 0.0000 3.8453
 -0.7665 1.1675 4.3220
 -0.7660 -1.1670 4.3224
 -3.0903 0.0010 4.4291
 -4.0238 -1.0479 3.9944
 -3.9922 -2.2030 4.9942
 -4.9626 -3.2933 4.5424
 -4.5544 -3.7951 3.2223
 -3.4903 -5.1794 3.1038
 -2.2477 -4.8807 3.7454
 -4.0996 -6.3040 3.7432
 -3.1933 -5.5632 1.3601
 -2.2654 -6.7703 1.2568
 -2.6889 0.3524 -0.3613
 -2.6889 2.1293 -0.3603
 -1.1500 1.2407 -0.3603
 -3.2020 1.2253 1.8902
 -1.6748 2.1338 1.8913
 -0.4140 0.0146 1.6736
 -1.9412 -0.8939 1.6726
 -3.4004 0.7223 5.0645
 -5.0306 -0.6384 3.9443
 -3.7295 -1.4099 3.0115
 -2.9850 -2.6111 5.0440
 -4.2859 -1.8395 5.9768
 -4.9499 -4.1100 5.2613
 -5.9673 -2.8804 4.4794
 -4.8882 -3.3406 2.3844
 -4.1394 -5.7895 0.8730
 -2.7304 -4.7065 0.8747
 -2.7348 -7.6294 1.7316
 -2.0762 -6.9928 0.2087
 -1.3249 -6.5478 1.7565
@<BUDE>CONF  1   
 0.0015 -0.0167 0.0014
 0.0010 -0.0175 1.5274
 -1.4400 0.0011 2.0353
 -1.4406 0.0000 3.8453
 -0.7665 1.1675 4.3220
 -0.7660 -1.1670 4.3224
 -3.0903 0.0010 4.4291
 -3.3579 -0.0153 5.8744
 -3.5132 -1.4603 6.3464
 -3.7914 -1.4772 7.8488
 -2.6629 -0.8621 8.5622
 -1.3496 -1.8601 9.1471
 -1.8572 -2.8126 10.0852
 -0.7479 -2.5474 8.0470
 -0.1131 -0.8148 9.9561
 0.4401 0.1895 8.9491
 -0.4879 0.8852 -0.3603
 1.0272 -0.0433 -0.3603
 -0.5345 -0.8911 -0.3613
 0.5245 0.8639 1.8913
 0.5012 -0.9129 1.8902
 -1.9645 -0.8804 1.6726
 -1.9412 0.8964 1.6736
 -3.8579 0.0127 3.7728
 -2.5286 0.4519 6.4014
 -4.2743 0.5343 6.0791
 -4.3422 -1.9265 5.8183
 -2.5965 -2.0089 6.1404
 -4.7007 -0.9164 8.0550
 -3.9153 -2.5054 8.1825
 -2.6460 0.1362 8.7144
 -0.5756 -0.2817 10.7842
 0.6969 -1.4367 10.3314
 -0.3687 0.8189 8.5839
 1.1929 0.8090 9.4319
 0.8898 -0.3448 8.1147
@<BUDE>CONF  1   
 -2.1760 1.2406 0.0014
 -2.1765 1.2397 1.5274
 -1.4400 0.0011 2.0353
 -1.4406 0.0000 3.8453
 -0.7665 1.1675 4.3220
 -0.7660 -1.1670 4.3224
 -3.0903 0.0010 4.4291
 -4.0238 -1.0479 3.9944
 -3.9922 -2.2030 4.9942
 -4.9626 -3.2933 4.5424
 -4.9321 -4.4045 5.5042
 -3.8454 -5.7524 5.2490
 -4.1639 -6.3925 4.0106
 -2.4978 -5.2758 5.2074
 -4.0260 -6.9368 6.6057
 -3.0784 -8.1121 6.3831
 -2.6889 0.3524 -0.3613
 -2.6889 2.1293 -0.3603
 -1.1500 1.2407 -0.3603
 -3.2020 1.2253 1.8902
 -1.6748 2.1338 1.8913
 -0.4140 0.0146 1.6736
 -1.9412 -0.8939 1.6726
 -3.4004 0.7223 5.0645
 -5.0306 -0.6384 3.9443
 -3.7295 -1.4099 3.0115
 -2.9850 -2.6111 5.0440
 -4.2859 -1.8395 5.9768
 -5.9694 -2.8838 4.4922
 -4.6683 -3.6553 3.5595
 -5.5383 -4.3896 6.3119
 -3.7841 -6.4484 7.5473
 -5.0518 -7.2981 6.6367
 -2.0522 -7.7513 6.3648
 -3.1966 -8.8305 7.1916
 -3.3122 -8.5911 5.4345
@<BUDE>CONF  1   
 -2.1598 -1.2456 -0.0001
 -2.1603 -1.2465 1.5259
 -1.4400 0.0011 2.0353
 -1.4406 0.0000 3.8453
 -0.7665 1.1675 4.3220
 -0.7660 -1.1670 4.3224
 -3.0903 0.0010 4.4291
 -4.0273 1.0412 3.9813
 -3.9994 2.2089 4.9664
 -4.9734 3.2903 4.5008
 -4.5668 3.7766 3.1746
 -3.5073 5.1629 3.0385
 -4.1353 6.3019 3.6328
 -2.2769 4.8894 3.7140
 -3.1759 5.4985 1.2911
 -2.2520 6.7072 1.1725
 -1.1338 -1.2588 -0.3617
 -2.6842 -2.1271 -0.3628
 -2.6609 -0.3502 -0.3617
 -1.6470 -2.1344 1.8888
 -3.1859 -1.2458 1.8888
 -1.9528 0.8898 1.6736
 -0.4139 0.0013 1.6736
 -3.3980 -0.7132 5.0736
 -3.7340 1.3918 2.9939
 -5.0327 0.6278 3.9361
 -4.2922 1.8569 5.9533
 -2.9934 2.6209 5.0111
 -5.9767 2.8732 4.4429
 -4.9635 4.1158 5.2094
 -4.8991 3.3106 2.3425
 -2.6988 4.6309 0.8400
 -4.1128 5.7056 0.7782
 -1.3108 6.4942 1.6750
 -2.0635 6.9171 0.1217
 -2.7242 7.5707 1.6364
@<BUDE>CONF  1   
 0.0015 -0.0167 0.0014
 0.0010 -0.0175 1.5274
 -1.4400 0.0011 2.0353
 -1.4406 0.0000 3.8453
 -0.7665 1.1675 4.3220
 -0.7660 -1.1670 4.3224
 -3.0903 0.0010 4.4291
 -3.3579 -0.0153 5.8744
 -3.4991 1.4191 6.3815
 -3.7773 1.4021 7.8839
 -2.6549 0.7587 8.5820
 -1.3320 1.7292 9.1909
 -0.7013 2.4100 8.1030
 -1.8355 2.6868 10.1259
 -0.1274 0.6573 10.0130
 0.4218 -0.3527 9.0093
 -0.4879 0.8852 -0.3603
 1.0272 -0.0433 -0.3603
 -0.5345 -0.8911 -0.3613
 0.5245 0.8639 1.8913
 0.5012 -0.9129 1.8902
 -1.9645 -0.8804 1.6726
 -1.9412 0.8964 1.6736
 -3.8579 0.0127 3.7728
 -4.2798 -0.5606 6.0657
 -2.5334 -0.5035 6.3897
 -2.5770 1.9634 6.1891
 -4.3233 1.9063 5.8648
 -3.8909 2.4231 8.2426
 -4.6921 0.8455 8.0764
 -2.6478 -0.2431 8.7098
 0.6885 1.2621 10.4031
 -0.6119 0.1293 10.8316
 0.9170 0.1762 8.1976
 1.1360 -1.0055 9.5067
 -0.3969 -0.9474 8.6094
@<BUDE>CONF  1   
 -2.1760 1.2406 0.0014
 -2.1765 1.2397 1.5274
 -1.4400 0.0011 2.0353
 -1.4406 0.0000 3.8453
 -0.7665 1.1675 4.3220
 -0.7660 -1.1670 4.3224
 -3.0903 0.0010 4.4291
 -3.3579 -0.0153 5.8744
 -3.4991 1.4191 6.3815
 -4.6685 2.0974 5.6694
 -4.8043 3.4774 6.1573
 -3.9920 4.7838 5.3229
 -2.5799 4.5591 5.3479
 -4.4432 4.8358 3.9670
 -4.3693 6.3510 6.1460
 -3.6610 7.4901 5.4184
 -2.6889 0.3524 -0.3613
 -2.6889 2.1293 -0.3603
 -1.1500 1.2407 -0.3603
 -3.2020 1.2253 1.8902
 -1.6748 2.1338 1.8913
 -0.4140 0.0146 1.6736
 -1.9412 -0.8939 1.6726
 -3.8579 0.0127 3.7728
 -4.2798 -0.5606 6.0657
 -2.5334 -0.5035 6.3897
 -3.6841 1.4075 7.4535
 -2.5818 1.9673 6.1770
 -4.4828 2.1077 4.5973
 -5.5849 1.5478 5.8740
 -5.3663 3.6710 6.9738
 -5.4439 6.5203 6.1270
 -4.0261 6.3098 7.1776
 -4.0141 7.5381 4.3905
 -3.8770 8.4305 5.9211
 -2.5875 7.3124 5.4259
@<BUDE>CONF  1   
 0.0015 -0.0167 0.0014
 0.0010 -0.0175 1.5274
 -1.4400 0.0011 2.0353
 -1.4406 0.0000 3.8453
 -0.7665 1.1675 4.3220
 -0.7660 -1.1670 4.3224
 -3.0903 0.0010 4.4291
 -3.3579 -0.0153 5.8744
 -3.4991 1.4191 6.3815
 -3.7773 1.4021 7.8839
 -3.9130 2.7821 8.3718
 -2.5148 3.6314 8.9934
 -1.9947 2.9279 10.1245
 -1.5127 3.7067 7.9759
 -2.9977 5.3033 9.4910
 -3.5360 6.0583 8.2790
 -0.4879 0.8852 -0.3603
 1.0272 -0.0433 -0.3603
 -0.5345 -0.8911 -0.3613
 0.5245 0.8639 1.8913
 0.5012 -0.9129 1.8902
 -1.9645 -0.8804 1.6726
 -1.9412 0.8964 1.6736
 -3.8579 0.0127 3.7728
 -4.2798 -0.5606 6.0657
 -2.5334 -0.5035 6.3897
 -2.5770 1.9634 6.1891
 -4.3233 1.9063 5.8648
 -4.6992 0.8568 8.0753
 -2.9528 0.9139 8.3993
 -4.8132 3.2395 8.3481
 -3.7701 5.2447 10.2550
 -2.1312 5.8268 9.8897
 -4.4098 5.5406 7.8889
 -3.8139 7.0676 8.5754
 -2.7674 6.1040 7.5102
@<BUDE>CONF  1   
 0.0015 -0.0167 0.0014
 0.0010 -0.0175 1.5274
 -1.4400 0.0011 2.0353
 -1.4406 0.0000 3.8453
 -0.7665 1.1675 4.3220
 -0.7660 -1.1670 4.3224
 -3.0903 0.0010 4.4291
 -3.3579 -0.0153 5.8744
 -3.4991 1.4191 6.3815
 -3.7773 1.4021 7.8839
 -2.6549 0.7587 8.5820
 -1.3320 1.7292 9.1909
 -0.7013 2.4100 8.1030
 -1.8355 2.6868 10.1259
 -0.1274 0.6573 10.0130
 1.0262 1.5035 10.5440
 -0.4879 0.8852 -0.3603
 1.0272 -0.0433 -0.3603
 -0.5345 -0.8911 -0.3613
 0.5245 0.8639 1.8913
 0.5012 -0.9129 1.8902
 -1.9645 -0.8804 1.6726
 -1.9412 0.8964 1.6736
 -3.8579 0.0127 3.7728
 -4.2798 -0.5606 6.0657
 -2.5334 -0.5035 6.3897
 -2.5770 1.9634 6.1891
 -4.3233 1.9063 5.8648
 -3.8909 2.4231 8.2426
 -4.6921 0.8455 8.0764
 -2.6478 -0.2431 8.7098
 -0.6086 0.1394 10.8399
 0.2543 -0.0712 9.3007
 0.6451 2.2233 11.2654
 1.7568 0.8577 11.0264
 1.4977 2.0319 9.7179
@<BUDE>CONF  1   
 0.0015 -0.0167 0.0014
 0.0010 -0.0175 1.5274
 -1.4400 0.0011 2.0353
 -1.4406 0.0000 3.8453
 -0.7665 1.1675 4.3220
 -0.7660 -1.1670 4.3224
 -3.0903 0.0010 4.4291
 -3.3579 -0.0153 5.8744
 -3.5132 -1.4603 6.3464
 -3.7914 -1.4772 7.8488
 -3.9408 -2.8673 8.3029
 -2.5510 -3.7452 8.9034
 -1.5638 -3.8358 7.8728
 -2.0031 -3.0558 10.0300
 -3.0591 -5.4094 9.4016
 -3.6272 -6.1497 8.1941
 -0.4879 0.8852 -0.3603
 1.0272 -0.0433 -0.3603
 -0.5345 -0.8911 -0.3613
 0.5245 0.8639 1.8913
 0.5012 -0.9129 1.8902
 -1.9645 -0.8804 1.6726
 -1.9412 0.8964 1.6736
 -3.8579 0.0127 3.7728
 -2.5286 0.4519 6.4014
 -4.2743 0.5343 6.0791
 -4.3422 -1.9265 5.8183
 -2.5965 -2.0089 6.1404
 -2.9621 -1.0100 8.3759
 -4.7078 -0.9276 8.0535
 -4.8454 -3.3151 8.2682
 -2.1977 -5.9507 9.7872
 -3.8203 -5.3390 10.1757
 -2.8612 -6.2304 7.4256
 -3.9449 -7.1453 8.4965
 -4.4799 -5.6000 7.8008
@<BUDE>CONF  1   
 -2.1598 -1.2456 -0.0001
 -2.1603 -1.2465 1.5259
 -1.4400 0.0011 2.0353
 -1.4406 0.0000 3.8453
 -0.7665 1.1675 4.3220
 -0.7660 -1.1670 4.3224
 -3.0903 0.0010 4.4291
 -3.3579 -0.0153 5.8744
 -3.5132 -1.4603 6.3464
 -3.7914 -1.4772 7.8488
 -2.6629 -0.8621 8.5622
 -1.3496 -1.8601 9.1471
 -1.8572 -2.8126 10.0852
 -0.7479 -2.5474 8.0470
 -0.1131 -0.8148 9.9561
 0.4401 0.1895 8.9491
 -1.1338 -1.2588 -0.3617
 -2.6842 -2.1271 -0.3628
 -2.6609 -0.3502 -0.3617
 -1.6470 -2.1344 1.8888
 -3.1859 -1.2458 1.8888
 -1.9528 0.8898 1.6736
 -0.4139 0.0013 1.6736
 -3.8579 0.0127 3.7728
 -2.5286 0.4519 6.4014
 -4.2743 0.5343 6.0791
 -4.3422 -1.9265 5.8183
 -2.5965 -2.0089 6.1404
 -4.7007 -0.9164 8.0550
 -3.9153 -2.5054 8.1825
 -2.6460 0.1362 8.7144
 -0.5756 -0.2817 10.7842
 0.6969 -1.4367 10.3314
 -0.3687 0.8189 8.5839
 1.1929 0.8090 9.4319
 0.8898 -0.3448 8.1147
@<BUDE>CONF  1   
 -2.1760 1.2406 0.0014
 -2.1765 1.2397 1.5274
 -1.4400 0.0011 2.0353
 -1.4406 0.0000 3.8453
 -0.7665 1.1675 4.3220
 -0.7660 -1.1670 4.3224
 -3.0903 0.0010 4.4291
 -4.0238 -1.0479 3.9944
 -3.9922 -2.2030 4.9942
 -4.9626 -3.2933 4.5424
 -4.9321 -4.4045 5.5042
 -3.8454 -5.7524 5.2490
 -4.1639 -6.3925 4.0106
 -2.4978 -5.2758 5.2074
 -4.0260 -6.9368 6.6057
 -3.6688 -6.2569 7.9243
 -2.6889 0.3524 -0.3613
 -2.6889 2.1293 -0.3603
 -1.1500 1.2407 -0.3603
 -3.2020 1.2253 1.8902
 -1.6748 2.1338 1.8913
 -0.4140 0.0146 1.6736
 -1.9412 -0.8939 1.6726
 -3.4004 0.7223 5.0645
 -5.0306 -0.6384 3.9443
 -3.7295 -1.4099 3.0115
 -2.9850 -2.6111 5.0440
 -4.2859 -1.8395 5.9768
 -5.9694 -2.8838 4.4922
 -4.6683 -3.6553 3.5595
 -5.5383 -4.3896 6.3119
 -5.0550 -7.2880 6.6451
 -3.3601 -7.7811 6.4402
 -4.3434 -5.4204 8.0947
 -3.7645 -6.9725 8.7382
 -2.6442 -5.8937 7.8785
@<BUDE>CONF  1   
 0.0015 -0.0167 0.0014
 0.0010 -0.0175 1.5274
 -1.4400 0.0011 2.0353
 -1.4406 0.0000 3.8453
 -0.7665 1.1675 4.3220
 -0.7660 -1.1670 4.3224
 -3.0903 0.0010 4.4291
 -3.3579 -0.0153 5.8744
 -3.5132 -1.4603 6.3464
 -4.6892 -2.1095 5.6181
 -4.8385 -3.4996 6.0722
 -4.0390 -4.7932 5.2060
 -2.6221 -4.6408 5.3250
 -4.4321 -6.0512 5.7606
 -4.5092 -4.7291 3.4594
 -6.0193 -4.9094 3.3331
 -0.4879 0.8852 -0.3603
 1.0272 -0.0433 -0.3603
 -0.5345 -0.8911 -0.3613
 0.5245 0.8639 1.8913
 0.5012 -0.9129 1.8902
 -1.9645 -0.8804 1.6726
 -1.9412 0.8964 1.6736
 -3.8579 0.0127 3.7728
 -2.5286 0.4519 6.4014
 -4.2743 0.5343 6.0791
 -2.6015 -2.0123 6.1283
 -3.6980 -1.4730 7.4185
 -5.6002 -1.5562 5.8363
 -4.5035 -2.0953 4.5461
 -5.4025 -3.7075 6.8838
 -4.2222 -3.7661 3.0423
 -4.0018 -5.5251 2.9185
 -6.5255 -4.1058 3.8640
 -6.3002 -4.8842 2.2824
 -6.3068 -5.8666 3.7633
@<BUDE>CONF  1   
 -2.1598 -1.2456 -0.0001
 -2.1603 -1.2465 1.5259
 -1.4400 0.0011 2.0353
 -1.4406 0.0000 3.8453
 -0.7665 1.1675 4.3220
 -0.7660 -1.1670 4.3224
 -3.0903 0.0010 4.4291
 -3.3579 -0.0153 5.8744
 -3.5132 -1.4603 6.3464
 -3.7914 -1.4772 7.8488
 -2.6629 -0.8621 8.5622
 -1.3496 -1.8601 9.1471
 -1.8572 -2.8126 10.0852
 -0.7479 -2.5474 8.0470
 -0.1131 -0.8148 9.9561
 1.0321 -1.6851 10.4662
 -1.1338 -1.2588 -0.3617
 -2.6842 -2.1271 -0.3628
 -2.6609 -0.3502 -0.3617
 -1.6470 -2.1344 1.8888
 -3.1859 -1.2458 1.8888
 -1.9528 0.8898 1.6736
 -0.4139 0.0013 1.6736
 -3.8579 0.0127 3.7728
 -2.5286 0.4519 6.4014
 -4.2743 0.5343 6.0791
 -4.3422 -1.9265 5.8183
 -2.5965 -2.0089 6.1404
 -4.7007 -0.9164 8.0550
 -3.9153 -2.5054 8.1825
 -2.6460 0.1362 8.7144
 0.2717 -0.0902 9.2416
 -0.5724 -0.2920 10.7924
 1.4985 -2.1977 9.6275
 1.7689 -1.0584 10.9642
 0.6437 -2.4185 11.1699
@<BUDE>CONF  1   
 -2.1760 1.2406 0.0014
 -2.1765 1.2397 1.5274
 -1.4400 0.0011 2.0353
 -1.4406 0.0000 3.8453
 -0.7665 1.1675 4.3220
 -0.7660 -1.1670 4.3224
 -3.0903 0.0010 4.4291
 -4.0238 -1.0479 3.9944
 -3.9922 -2.2030 4.9942
 -4.4228 -1.6965 6.3701
 -4.3923 -2.8077 7.3319
 -2.9507 -3.1057 8.2784
 -1.8575 -3.3933 7.4025
 -2.6455 -1.9466 9.0582
 -3.2323 -4.5163 9.3768
 -1.9753 -4.7762 10.2021
 -2.6889 0.3524 -0.3613
 -2.6889 2.1293 -0.3603
 -1.1500 1.2407 -0.3603
 -3.2020 1.2253 1.8902
 -1.6748 2.1338 1.8913
 -0.4140 0.0146 1.6736
 -1.9412 -0.8939 1.6726
 -3.4004 0.7223 5.0645
 -5.0306 -0.6384 3.9443
 -3.7295 -1.4099 3.0115
 -4.6733 -2.9850 4.6656
 -2.9819 -2.6024 5.0540
 -3.7414 -0.9139 6.6974
 -5.4328 -1.2965 6.3088
 -5.2033 -3.3986 7.4462
 -4.0647 -4.2965 10.0422
 -3.4652 -5.3973 8.7823
 -1.7506 -3.8991 10.8055
 -2.1400 -5.6324 10.8528
 -1.1405 -4.9819 9.5352
@<BUDE>CONF  1   
 -2.1598 -1.2456 -0.0001
 -2.1603 -1.2465 1.5259
 -1.4400 0.0011 2.0353
 -1.4406 0.0000 3.8453
 -0.7665 1.1675 4.3220
 -0.7660 -1.1670 4.3224
 -3.0903 0.0010 4.4291
 -3.3579 -0.0153 5.8744
 -3.4991 1.4191 6.3815
 -3.7773 1.4021 7.8839
 -2.6549 0.7587 8.5820
 -1.3320 1.7292 9.1909
 -0.7013 2.4100 8.1030
 -1.8355 2.6868 10.1259
 -0.1274 0.6573 10.0130
 0.4218 -0.3527 9.0093
 -1.1338 -1.2588 -0.3617
 -2.6842 -2.1271 -0.3628
 -2.6609 -0.3502 -0.3617
 -1.6470 -2.1344 1.8888
 -3.1859 -1.2458 1.8888
 -1.9528 0.8898 1.6736
 -0.4139 0.0013 1.6736
 -3.8579 0.0127 3.7728
 -4.2798 -0.5606 6.0657
 -2.5334 -0.5035 6.3897
 -2.5770 1.9634 6.1891
 -4.3233 1.9063 5.8648
 -3.8909 2.4231 8.2426
 -4.6921 0.8455 8.0764
 -2.6478 -0.2431 8.7098
 0.6885 1.2621 10.4031
 -0.6119 0.1293 10.8316
 0.9170 0.1762 8.1976
 1.1360 -1.0055 9.5067
 -0.3969 -0.9474 8.6094
@<BUDE>CONF  1   
 -2.1760 1.2406 0.0014
 -2.1765 1.2397 1.5274
 -1.4400 0.0011 2.0353
 -1.4406 0.0000 3.8453
 -0.7665 1.1675 4.3220
 -0.7660 -1.1670 4.3224
 -3.0903 0.0010 4.4291
 -3.3579 -0.0153 5.8744
 -3.4991 1.4191 6.3815
 -4.6685 2.0974 5.6694
 -4.8043 3.4774 6.1573
 -3.9920 4.7838 5.3229
 -2.5799 4.5591 5.3479
 -4.4432 4.8358 3.9670
 -4.3693 6.3510 6.1460
 -5.8747 6.5976 6.1030
 -2.6889 0.3524 -0.3613
 -2.6889 2.1293 -0.3603
 -1.1500 1.2407 -0.3603
 -3.2020 1.2253 1.8902
 -1.6748 2.1338 1.8913
 -0.4140 0.0146 1.6736
 -1.9412 -0.8939 1.6726
 -3.8579 0.0127 3.7728
 -4.2798 -0.5606 6.0657
 -2.5334 -0.5035 6.3897
 -3.6841 1.4075 7.4535
 -2.5818 1.9673 6.1770
 -4.4828 2.1077 4.5973
 -5.5849 1.5478 5.8740
 -5.3663 3.6710 6.9738
 -4.0382 6.3050 7.1814
 -3.8537 7.1615 5.6353
 -6.3884 5.7929 6.6248
 -6.1001 7.5460 6.5860
 -6.2069 6.6293 5.0674
@<BUDE>CONF  1   
 -2.1598 -1.2456 -0.0001
 -2.1603 -1.2465 1.5259
 -1.4400 0.0011 2.0353
 -1.4406 0.0000 3.8453
 -0.7665 1.1675 4.3220
 -0.7660 -1.1670 4.3224
 -3.0903 0.0010 4.4291
 -3.3579 -0.0153 5.8744
 -3.5132 -1.4603 6.3464
 -3.7914 -1.4772 7.8488
 -3.9408 -2.8673 8.3029
 -2.5510 -3.7452 8.9034
 -1.5638 -3.8358 7.8728
 -2.0031 -3.0558 10.0300
 -3.0591 -5.4094 9.4016
 -3.6272 -6.1497 8.1941
 -1.1338 -1.2588 -0.3617
 -2.6842 -2.1271 -0.3628
 -2.6609 -0.3502 -0.3617
 -1.6470 -2.1344 1.8888
 -3.1859 -1.2458 1.8888
 -1.9528 0.8898 1.6736
 -0.4139 0.0013 1.6736
 -3.8579 0.0127 3.7728
 -2.5286 0.4519 6.4014
 -4.2743 0.5343 6.0791
 -4.3422 -1.9265 5.8183
 -2.5965 -2.0089 6.1404
 -2.9621 -1.0100 8.3759
 -4.7078 -0.9276 8.0535
 -4.8454 -3.3151 8.2682
 -2.1977 -5.9507 9.7872
 -3.8203 -5.3390 10.1757
 -2.8612 -6.2304 7.4256
 -3.9449 -7.1453 8.4965
 -4.4799 -5.6000 7.8008
@<BUDE>CONF  1   
 -2.1598 -1.2456 -0.0001
 -2.1603 -1.2465 1.5259
 -1.4400 0.0011 2.0353
 -1.4406 0.0000 3.8453
 -0.7665 1.1675 4.3220
 -0.7660 -1.1670 4.3224
 -3.0903 0.0010 4.4291
 -4.0273 1.0412 3.9813
 -3.9994 2.2089 4.9664
 -4.9734 3.2903 4.5008
 -4.9466 4.4136 5.4486
 -3.8643 5.7617 5.1764
 -2.5129 5.2943 5.1756
 -4.1621 6.3635 3.9138
 -4.0806 6.9833 6.4943
 -3.7455 6.3443 7.8390
 -1.1338 -1.2588 -0.3617
 -2.6842 -2.1271 -0.3628
 -2.6609 -0.3502 -0.3617
 -1.6470 -2.1344 1.8888
 -3.1859 -1.2458 1.8888
 -1.9528 0.8898 1.6736
 -0.4139 0.0013 1.6736
 -3.3980 -0.7132 5.0736
 -3.7340 1.3918 2.9939
 -5.0327 0.6278 3.9361
 -4.2922 1.8569 5.9533
 -2.9934 2.6209 5.0111
 -4.6801 3.6409 3.5134
 -5.9788 2.8768 4.4557
 -5.5528 4.4069 6.2563
 -3.4173 7.8275 6.3179
 -5.1126 7.3277 6.5028
 -2.7097 6.0116 7.8335
 -3.8884 7.0747 8.6325
 -4.4001 5.4917 8.0078
@<BUDE>CONF  1   
 -2.1598 -1.2456 -0.0001
 -2.1603 -1.2465 1.5259
 -1.4400 0.0011 2.0353
 -1.4406 0.0000 3.8453
 -0.7665 1.1675 4.3220
 -0.7660 -1.1670 4.3224
 -3.0903 0.0010 4.4291
 -3.3579 -0.0153 5.8744
 -3.4991 1.4191 6.3815
 -3.7773 1.4021 7.8839
 -3.9130 2.7821 8.3718
 -2.5148 3.6314 8.9934
 -1.9947 2.9279 10.1245
 -1.5127 3.7067 7.9759
 -2.9977 5.3033 9.4910
 -3.5360 6.0583 8.2790
 -1.1338 -1.2588 -0.3617
 -2.6842 -2.1271 -0.3628
 -2.6609 -0.3502 -0.3617
 -1.6470 -2.1344 1.8888
 -3.1859 -1.2458 1.8888
 -1.9528 0.8898 1.6736
 -0.4139 0.0013 1.6736
 -3.8579 0.0127 3.7728
 -4.2798 -0.5606 6.0657
 -2.5334 -0.5035 6.3897
 -2.5770 1.9634 6.1891
 -4.3233 1.9063 5.8648
 -4.6992 0.8568 8.0753
 -2.9528 0.9139 8.3993
 -4.8132 3.2395 8.3481
 -3.7701 5.2447 10.2550
 -2.1312 5.8268 9.8897
 -4.4098 5.5406 7.8889
 -3.8139 7.0676 8.5754
 -2.7674 6.1040 7.5102
@<BUDE>CONF  1   
 -2.1598 -1.2456 -0.0001
 -2.1603 -1.2465 1.5259
 -1.4400 0.0011 2.0353
 -1.4406 0.0000 3.8453
 -0.7665 1.1675 4.3220
 -0.7660 -1.1670 4.3224
 -3.0903 0.0010 4.4291
 -3.3579 -0.0153 5.8744
 -3.4991 1.4191 6.3815
 -3.7773 1.4021 7.8839
 -2.6549 0.7587 8.5820
 -1.3320 1.7292 9.1909
 -0.7013 2.4100 8.1030
 -1.8355 2.6868 10.1259
 -0.1274 0.6573 10.0130
 1.0262 1.5035 10.5440
 -1.1338 -1.2588 -0.3617
 -2.6842 -2.1271 -0.3628
 -2.6609 -0.3502 -0.3617
 -1.6470 -2.1344 1.8888
 -3.1859 -1.2458 1.8888
 -1.9528 0.8898 1.6736
 -0.4139 0.0013 1.6736
 -3.8579 0.0127 3.7728
 -4.2798 -0.5606 6.0657
 -2.5334 -0.5035 6.3897
 -2.5770 1.9634 6.1891
 -4.3233 1.9063 5.8648
 -3.8909 2.4231 8.2426
 -4.6921 0.8455 8.0764
 -2.6478 -0.2431 8.7098
 -0.6086 0.1394 10.8399
 0.2543 -0.0712 9.3007
 0.6451 2.2233 11.2654
 1.7568 0.8577 11.0264
 1.4977 2.0319 9.7179
@<BUDE>CONF  1   
 0.0015 -0.0167 0.0014
 0.0010 -0.0175 1.5274
 -1.4400 0.0011 2.0353
 -1.4406 0.0000 3.8453
 -0.7665 1.1675 4.3220
 -0.7660 -1.1670 4.3224
 -3.0903 0.0010 4.4291
 -4.0273 1.0412 3.9813
 -3.9994 2.2089 4.9664
 -4.9734 3.2903 4.5008
 -4.5668 3.7766 3.1746
 -3.5073 5.1629 3.0385
 -4.1353 6.3019 3.6328
 -2.2769 4.8894 3.7140
 -3.1759 5.4985 1.2911
 -2.2520 6.7072 1.1725
 -0.4879 0.8852 -0.3603
 1.0272 -0.0433 -0.3603
 -0.5345 -0.8911 -0.3613
 0.5245 0.8639 1.8913
 0.5012 -0.9129 1.8902
 -1.9645 -0.8804 1.6726
 -1.9412 0.8964 1.6736
 -3.3980 -0.7132 5.0736
 -3.7340 1.3918 2.9939
 -5.0327 0.6278 3.9361
 -4.2922 1.8569 5.9533
 -2.9934 2.6209 5.0111
 -5.9767 2.8732 4.4429
 -4.9635 4.1158 5.2094
 -4.8991 3.3106 2.3425
 -2.6988 4.6309 0.8400
 -4.1128 5.7056 0.7782
 -1.3108 6.4942 1.6750
 -2.0635 6.9171 0.1217
 -2.7242 7.5707 1.6364
@<BUDE>CONF  1   
 -2.1760 1.2406 0.0014
 -2.1765 1.2397 1.5274
 -1.4400 0.0011 2.0353
 -1.4406 0.0000 3.8453
 -0.7665 1.1675 4.3220
 -0.7660 -1.1670 4.3224
 -3.0903 0.0010 4.4291
 -4.0238 -1.0479 3.9944
 -3.9922 -2.2030 4.9942
 -4.4228 -1.6965 6.3701
 -4.3923 -2.8077 7.3319
 -2.9507 -3.1057 8.2784
 -3.2016 -4.1633 9.2074
 -1.8790 -3.4787 7.4083
 -2.5013 -1.6024 9.1808
 -3.6389 -1.2157 10.1216
 -2.6889 0.3524 -0.3613
 -2.6889 2.1293 -0.3603
 -1.1500 1.2407 -0.3603
 -3.2020 1.2253 1.8902
 -1.6748 2.1338 1.8913
 -0.4140 0.0146 1.6736
 -1.9412 -0.8939 1.6726
 -3.4004 0.7223 5.0645
 -5.0306 -0.6384 3.9443
 -3.7295 -1.4099 3.0115
 -4.6733 -2.9850 4.6656
 -2.9819 -2.6024 5.0540
 -3.7414 -0.9139 6.6974
 -5.4328 -1.2965 6.3088
 -5.2033 -3.3986 7.4462
 -1.5975 -1.7837 9.7588
 -2.3244 -0.7949 8.4735
 -3.8065 -2.0188 10.8362
 -3.3743 -0.3048 10.6543
 -4.5455 -1.0485 9.5438
@<BUDE>CONF  1   
 -2.1598 -1.2456 -0.0001
 -2.1603 -1.2465 1.5259
 -1.4400 0.0011 2.0353
 -1.4406 0.0000 3.8453
 -0.7665 1.1675 4.3220
 -0.7660 -1.1670 4.3224
 -3.0903 0.0010 4.4291
 -4.0273 1.0412 3.9813
 -3.9994 2.2089 4.9664
 -4.9734 3.2903 4.5008
 -4.9466 4.4136 5.4486
 -6.0782 4.4592 6.7828
 -5.8084 3.3730 7.6729
 -5.9373 5.6975 7.4841
 -7.7662 4.3139 6.1460
 -8.0583 5.4834 5.2101
 -1.1338 -1.2588 -0.3617
 -2.6842 -2.1271 -0.3628
 -2.6609 -0.3502 -0.3617
 -1.6470 -2.1344 1.8888
 -3.1859 -1.2458 1.8888
 -1.9528 0.8898 1.6736
 -0.4139 0.0013 1.6736
 -3.3980 -0.7132 5.0736
 -3.7340 1.3918 2.9939
 -5.0327 0.6278 3.9361
 -4.2922 1.8569 5.9533
 -2.9934 2.6209 5.0111
 -4.6801 3.6409 3.5134
 -5.9788 2.8768 4.4557
 -4.2752 5.1585 5.3293
 -7.8681 3.3780 5.6007
 -8.4690 4.3290 6.9765
 -7.3630 5.4600 4.3736
 -9.0775 5.4033 4.8378
 -7.9423 6.4192 5.7530
@<BUDE>CONF  1   
 -2.1760 1.2406 0.0014
 -2.1765 1.2397 1.5274
 -1.4400 0.0011 2.0353
 -1.4406 0.0000 3.8453
 -0.7665 1.1675 4.3220
 -0.7660 -1.1670 4.3224
 -3.0903 0.0010 4.4291
 -4.0238 -1.0479 3.9944
 -3.9922 -2.2030 4.9942
 -4.4228 -1.6965 6.3701
 -4.3923 -2.8077 7.3319
 -2.9507 -3.1057 8.2784
 -1.8575 -3.3933 7.4025
 -2.6455 -1.9466 9.0582
 -3.2323 -4.5163 9.3768
 -4.3878 -4.2008 10.3225
 -2.6889 0.3524 -0.3613
 -2.6889 2.1293 -0.3603
 -1.1500 1.2407 -0.3603
 -3.2020 1.2253 1.8902
 -1.6748 2.1338 1.8913
 -0.4140 0.0146 1.6736
 -1.9412 -0.8939 1.6726
 -3.4004 0.7223 5.0645
 -5.0306 -0.6384 3.9443
 -3.7295 -1.4099 3.0115
 -4.6733 -2.9850 4.6656
 -2.9819 -2.6024 5.0540
 -3.7414 -0.9139 6.6974
 -5.4328 -1.2965 6.3088
 -5.2033 -3.3986 7.4462
 -3.4783 -5.3941 8.7830
 -2.3317 -4.7099 9.9557
 -5.2907 -4.0197 9.7430
 -4.5484 -5.0435 10.9916
 -4.1466 -3.3145 10.9057
@<BUDE>CONF  1   
 -2.1598 -1.2456 -0.0001
 -2.1603 -1.2465 1.5259
 -1.4400 0.0011 2.0353
 -1.4406 0.0000 3.8453
 -0.7665 1.1675 4.3220
 -0.7660 -1.1670 4.3224
 -3.0903 0.0010 4.4291
 -4.0273 1.0412 3.9813
 -3.9994 2.2089 4.9664
 -4.4284 1.7184 6.3485
 -4.4016 2.8417 7.2963
 -2.9610 3.1564 8.2388
 -2.6719 2.0214 9.0593
 -1.8609 3.4020 7.3589
 -3.2320 4.6068 9.2871
 -3.5230 5.8206 8.4092
 -1.1338 -1.2588 -0.3617
 -2.6842 -2.1271 -0.3628
 -2.6609 -0.3502 -0.3617
 -1.6470 -2.1344 1.8888
 -3.1859 -1.2458 1.8888
 -1.9528 0.8898 1.6736
 -0.4139 0.0013 1.6736
 -3.3980 -0.7132 5.0736
 -3.7340 1.3918 2.9939
 -5.0327 0.6278 3.9361
 -2.9905 2.6122 5.0212
 -4.6830 2.9846 4.6278
 -5.4372 1.3145 6.2923
 -3.7446 0.9421 6.6856
 -5.2145 3.4314 7.4030
 -4.0781 4.4240 9.9463
 -2.3412 4.7945 9.8828
 -4.4211 5.6366 7.8232
 -3.6728 6.6952 9.0387
 -2.6822 5.9938 7.7407
@<BUDE>CONF  1   
 0.0015 -0.0167 0.0014
 0.0010 -0.0175 1.5274
 -1.4400 0.0011 2.0353
 -1.4406 0.0000 3.8453
 -0.7665 1.1675 4.3220
 -0.7660 -1.1670 4.3224
 -3.0903 0.0010 4.4291
 -3.3579 -0.0153 5.8744
 -3.5132 -1.4603 6.3464
 -3.7914 -1.4772 7.8488
 -5.0391 -0.7501 8.1234
 -6.5595 -1.6145 8.1851
 -7.6031 -0.7150 8.5682
 -6.8492 -2.1604 6.8956
 -6.4418 -2.9545 9.3961
 -6.1500 -2.3688 10.7748
 -0.4879 0.8852 -0.3603
 1.0272 -0.0433 -0.3603
 -0.5345 -0.8911 -0.3613
 0.5245 0.8639 1.8913
 0.5012 -0.9129 1.8902
 -1.9645 -0.8804 1.6726
 -1.9412 0.8964 1.6736
 -3.8579 0.0127 3.7728
 -2.5286 0.4519 6.4014
 -4.2743 0.5343 6.0791
 -4.3422 -1.9265 5.8183
 -2.5965 -2.0089 6.1404
 -3.8888 -2.5067 8.1874
 -2.9683 -0.9982 8.3748
 -5.0183 0.2480 8.2764
 -7.3826 -3.5002 9.4249
 -5.6383 -3.6304 9.1112
 -6.9603 -1.7027 11.0640
 -6.0661 -3.1751 11.5003
 -5.2161 -1.8115 10.7412
@<BUDE>CONF  1   
 0.0015 -0.0167 0.0014
 0.0010 -0.0175 1.5274
 -1.4400 0.0011 2.0353
 -1.4406 0.0000 3.8453
 -0.7665 1.1675 4.3220
 -0.7660 -1.1670 4.3224
 -3.0903 0.0010 4.4291
 -4.0273 1.0412 3.9813
 -3.9994 2.2089 4.9664
 -4.9734 3.2903 4.5008
 -4.9466 4.4136 5.4486
 -3.8643 5.7617 5.1764
 -2.5129 5.2943 5.1756
 -4.1621 6.3635 3.9138
 -4.0806 6.9833 6.4943
 -3.7455 6.3443 7.8390
 -0.4879 0.8852 -0.3603
 1.0272 -0.0433 -0.3603
 -0.5345 -0.8911 -0.3613
 0.5245 0.8639 1.8913
 0.5012 -0.9129 1.8902
 -1.9645 -0.8804 1.6726
 -1.9412 0.8964 1.6736
 -3.3980 -0.7132 5.0736
 -3.7340 1.3918 2.9939
 -5.0327 0.6278 3.9361
 -4.2922 1.8569 5.9533
 -2.9934 2.6209 5.0111
 -4.6801 3.6409 3.5134
 -5.9788 2.8768 4.4557
 -5.5528 4.4069 6.2563
 -3.4173 7.8275 6.3179
 -5.1126 7.3277 6.5028
 -2.7097 6.0116 7.8335
 -3.8884 7.0747 8.6325
 -4.4001 5.4917 8.0078
@<BUDE>CONF  1   
 0.0015 -0.0167 0.0014
 0.0010 -0.0175 1.5274
 -1.4400 0.0011 2.0353
 -1.4406 0.0000 3.8453
 -0.7665 1.1675 4.3220
 -0.7660 -1.1670 4.3224
 -3.0903 0.0010 4.4291
 -3.3579 -0.0153 5.8744
 -3.4991 1.4191 6.3815
 -4.6685 2.0974 5.6694
 -5.9095 1.3653 5.9606
 -6.9099 1.8439 7.3144
 -6.1601 1.7234 8.5261
 -7.3252 3.2014 7.1429
 -8.3662 0.7721 7.3957
 -9.2385 1.1893 8.5763
 -0.4879 0.8852 -0.3603
 1.0272 -0.0433 -0.3603
 -0.5345 -0.8911 -0.3613
 0.5245 0.8639 1.8913
 0.5012 -0.9129 1.8902
 -1.9645 -0.8804 1.6726
 -1.9412 0.8964 1.6736
 -3.8579 0.0127 3.7728
 -4.2798 -0.5606 6.0657
 -2.5334 -0.5035 6.3897
 -3.6841 1.4075 7.4535
 -2.5818 1.9673 6.1770
 -4.7607 3.1230 6.0209
 -4.4890 2.0959 4.5963
 -6.1843 0.5866 5.3792
 -8.9354 0.8641 6.4731
 -8.0489 -0.2605 7.5255
 -9.5654 2.2180 8.4392
 -10.1071 0.5366 8.6331
 -8.6638 1.1103 9.4968
@<BUDE>CONF  1   
 0.0015 -0.0167 0.0014
 0.0010 -0.0175 1.5274
 -1.4400 0.0011 2.0353
 -1.4406 0.0000 3.8453
 -0.7665 1.1675 4.3220
 -0.7660 -1.1670 4.3224
 -3.0903 0.0010 4.4291
 -3.3579 -0.0153 5.8744
 -3.4991 1.4191 6.3815
 -3.7773 1.4021 7.8839
 -5.0321 0.6808 8.1409
 -6.5440 1.5583 8.2238
 -6.8368 2.1237 6.9434
 -7.5933 0.6635 8.6020
 -6.4059 2.8812 9.4514
 -6.1108 2.2748 10.8204
 -0.4879 0.8852 -0.3603
 1.0272 -0.0433 -0.3603
 -0.5345 -0.8911 -0.3613
 0.5245 0.8639 1.8913
 0.5012 -0.9129 1.8902
 -1.9645 -0.8804 1.6726
 -1.9412 0.8964 1.6736
 -3.8579 0.0127 3.7728
 -4.2798 -0.5606 6.0657
 -2.5334 -0.5035 6.3897
 -2.5770 1.9634 6.1891
 -4.3233 1.9063 5.8648
 -2.9590 0.9022 8.3980
 -3.8644 2.4239 8.2475
 -5.0211 -0.3209 8.2694
 -5.5980 3.5533 9.1701
 -7.3414 3.4351 9.4935
 -5.1689 1.7316 10.7803
 -6.0410 3.0689 11.5607
 -6.9125 1.5921 11.0944
@<BUDE>CONF  1   
 -2.1760 1.2406 0.0014
 -2.1765 1.2397 1.5274
 -1.4400 0.0011 2.0353
 -1.4406 0.0000 3.8453
 -0.7665 1.1675 4.3220
 -0.7660 -1.1670 4.3224
 -3.0903 0.0010 4.4291
 -4.0238 -1.0479 3.9944
 -3.9922 -2.2030 4.9942
 -4.9626 -3.2933 4.5424
 -6.3255 -2.7448 4.4918
 -7.3735 -2.8767 5.8871
 -6.8323 -2.1061 6.9633
 -8.6739 -2.3839 5.5538
 -7.4947 -4.6119 6.3875
 -8.0887 -5.4298 5.2442
 -2.6889 0.3524 -0.3613
 -2.6889 2.1293 -0.3603
 -1.1500 1.2407 -0.3603
 -3.2020 1.2253 1.8902
 -1.6748 2.1338 1.8913
 -0.4140 0.0146 1.6736
 -1.9412 -0.8939 1.6726
 -3.4004 0.7223 5.0645
 -5.0306 -0.6384 3.9443
 -3.7295 -1.4099 3.0115
 -2.9850 -2.6111 5.0440
 -4.2859 -1.8395 5.9768
 -4.6760 -3.6460 3.5538
 -4.9301 -4.1216 5.2471
 -6.6564 -2.2921 3.6518
 -6.5029 -4.9897 6.6272
 -8.1356 -4.6924 7.2629
 -7.4405 -5.3586 4.3733
 -8.1739 -6.4705 5.5497
 -9.0746 -5.0421 4.9959
@<BUDE>CONF  1   
 0.0015 -0.0167 0.0014
 0.0010 -0.0175 1.5274
 -1.4400 0.0011 2.0353
 -1.4406 0.0000 3.8453
 -0.7665 1.1675 4.3220
 -0.7660 -1.1670 4.3224
 -3.0903 0.0010 4.4291
 -3.3579 -0.0153 5.8744
 -3.4991 1.4191 6.3815
 -4.6685 2.0974 5.6694
 -5.9095 1.3653 5.9606
 -6.9099 1.8439 7.3144
 -6.1601 1.7234 8.5261
 -7.3252 3.2014 7.1429
 -8.3662 0.7721 7.3957
 -7.9218 -0.6740 7.5964
 -0.4879 0.8852 -0.3603
 1.0272 -0.0433 -0.3603
 -0.5345 -0.8911 -0.3613
 0.5245 0.8639 1.8913
 0.5012 -0.9129 1.8902
 -1.9645 -0.8804 1.6726
 -1.9412 0.8964 1.6736
 -3.8579 0.0127 3.7728
 -4.2798 -0.5606 6.0657
 -2.5334 -0.5035 6.3897
 -3.6841 1.4075 7.4535
 -2.5818 1.9673 6.1770
 -4.7607 3.1230 6.0209
 -4.4890 2.0959 4.5963
 -6.1843 0.5866 5.3792
 -8.9947 1.0779 8.2294
 -8.9282 0.8539 6.4677
 -7.3707 -0.7570 8.5308
 -8.7965 -1.3199 7.6319
 -7.2818 -0.9742 6.7693
@<BUDE>CONF  1   
 -2.1598 -1.2456 -0.0001
 -2.1603 -1.2465 1.5259
 -1.4400 0.0011 2.0353
 -1.4406 0.0000 3.8453
 -0.7665 1.1675 4.3220
 -0.7660 -1.1670 4.3224
 -3.0903 0.0010 4.4291
 -4.0273 1.0412 3.9813
 -3.9994 2.2089 4.9664
 -4.9734 3.2903 4.5008
 -6.3345 2.7367 4.4572
 -7.3830 2.8827 5.8508
 -8.6768 2.3655 5.5291
 -6.8303 2.1418 6.9418
 -7.5275 4.6260 6.3157
 -8.1337 5.4121 5.1566
 -1.1338 -1.2588 -0.3617
 -2.6842 -2.1271 -0.3628
 -2.6609 -0.3502 -0.3617
 -1.6470 -2.1344 1.8888
 -3.1859 -1.2458 1.8888
 -1.9528 0.8898 1.6736
 -0.4139 0.0013 1.6736
 -3.3980 -0.7132 5.0736
 -3.7340 1.3918 2.9939
 -5.0327 0.6278 3.9361
 -4.2922 1.8569 5.9533
 -2.9934 2.6209 5.0111
 -4.9438 4.1275 5.1952
 -4.6879 3.6315 3.5079
 -6.6639 2.2723 3.6230
 -8.1686 4.7156 7.1901
 -6.5408 5.0221 6.5465
 -9.1254 5.0232 4.9350
 -8.2082 6.4622 5.4312
 -7.4989 5.3102 4.2788
@<BUDE>CONF  1   
 -2.1760 1.2406 0.0014
 -2.1765 1.2397 1.5274
 -1.4400 0.0011 2.0353
 -1.4406 0.0000 3.8453
 -0.7665 1.1675 4.3220
 -0.7660 -1.1670 4.3224
 -3.0903 0.0010 4.4291
 -4.0238 -1.0479 3.9944
 -3.9922 -2.2030 4.9942
 -4.4228 -1.6965 6.3701
 -5.7940 -1.1726 6.2913
 -7.1518 -2.2210 6.6377
 -7.1585 -3.3120 5.7134
 -7.0357 -2.7252 7.9707
 -8.6922 -1.2840 6.4780
 -9.8762 -2.1982 6.7800
 -2.6889 0.3524 -0.3613
 -2.6889 2.1293 -0.3603
 -1.1500 1.2407 -0.3603
 -3.2020 1.2253 1.8902
 -1.6748 2.1338 1.8913
 -0.4140 0.0146 1.6736
 -1.9412 -0.8939 1.6726
 -3.4004 0.7223 5.0645
 -5.0306 -0.6384 3.9443
 -3.7295 -1.4099 3.0115
 -4.6733 -2.9850 4.6656
 -2.9819 -2.6024 5.0540
 -4.3875 -2.5160 7.0849
 -3.7492 -0.9048 6.6915
 -5.9519 -0.2080 6.0373
 -8.6855 -0.4539 7.1812
 -8.7790 -0.9004 5.4636
 -9.7948 -2.5713 7.7988
 -10.8027 -1.6385 6.6710
 -9.8736 -3.0355 6.0852
@<BUDE>CONF  1   
 -2.1598 -1.2456 -0.0001
 -2.1603 -1.2465 1.5259
 -1.4400 0.0011 2.0353
 -1.4406 0.0000 3.8453
 -0.7665 1.1675 4.3220
 -0.7660 -1.1670 4.3224
 -3.0903 0.0010 4.4291
 -3.3579 -0.0153 5.8744
 -3.5132 -1.4603 6.3464
 -3.7914 -1.4772 7.8488
 -5.0391 -0.7501 8.1234
 -6.5595 -1.6145 8.1851
 -7.6031 -0.7150 8.5682
 -6.8492 -2.1604 6.8956
 -6.4418 -2.9545 9.3961
 -6.1500 -2.3688 10.7748
 -1.1338 -1.2588 -0.3617
 -2.6842 -2.1271 -0.3628
 -2.6609 -0.3502 -0.3617
 -1.6470 -2.1344 1.8888
 -3.1859 -1.2458 1.8888
 -1.9528 0.8898 1.6736
 -0.4139 0.0013 1.6736
 -3.8579 0.0127 3.7728
 -2.5286 0.4519 6.4014
 -4.2743 0.5343 6.0791
 -4.3422 -1.9265 5.8183
 -2.5965 -2.0089 6.1404
 -3.8888 -2.5067 8.1874
 -2.9683 -0.9982 8.3748
 -5.0183 0.2480 8.2764
 -7.3826 -3.5002 9.4249
 -5.6383 -3.6304 9.1112
 -6.9603 -1.7027 11.0640
 -6.0661 -3.1751 11.5003
 -5.2161 -1.8115 10.7412
@<BUDE>CONF  1   
 0.0015 -0.0167 0.0014
 0.0010 -0.0175 1.5274
 -1.4400 0.0011 2.0353
 -1.4406 0.0000 3.8453
 -0.7665 1.1675 4.3220
 -0.7660 -1.1670 4.3224
 -3.0903 0.0010 4.4291
 -4.0273 1.0412 3.9813
 -3.9994 2.2089 4.9664
 -4.9734 3.2903 4.5008
 -4.9466 4.4136 5.4486
 -6.0782 4.4592 6.7828
 -5.8084 3.3730 7.6729
 -5.9373 5.6975 7.4841
 -7.7662 4.3139 6.1460
 -8.0583 5.4834 5.2101
 -0.4879 0.8852 -0.3603
 1.0272 -0.0433 -0.3603
 -0.5345 -0.8911 -0.3613
 0.5245 0.8639 1.8913
 0.5012 -0.9129 1.8902
 -1.9645 -0.8804 1.6726
 -1.9412 0.8964 1.6736
 -3.3980 -0.7132 5.0736
 -3.7340 1.3918 2.9939
 -5.0327 0.6278 3.9361
 -4.2922 1.8569 5.9533
 -2.9934 2.6209 5.0111
 -4.6801 3.6409 3.5134
 -5.9788 2.8768 4.4557
 -4.2752 5.1585 5.3293
 -7.8681 3.3780 5.6007
 -8.4690 4.3290 6.9765
 -7.3630 5.4600 4.3736
 -9.0775 5.4033 4.8378
 -7.9423 6.4192 5.7530
@<BUDE>CONF  1   
 -2.1760 1.2406 0.0014
 -2.1765 1.2397 1.5274
 -1.4400 0.0011 2.0353
 -1.4406 0.0000 3.8453
 -0.7665 1.1675 4.3220
 -0.7660 -1.1670 4.3224
 -3.0903 0.0010 4.4291
 -4.0238 -1.0479 3.9944
 -3.9922 -2.2030 4.9942
 -4.4228 -1.6965 6.3701
 -5.7940 -1.1726 6.2913
 -7.1518 -2.2210 6.6377
 -7.1585 -3.3120 5.7134
 -7.0357 -2.7252 7.9707
 -8.6922 -1.2840 6.4780
 -8.8230 -0.7616 5.0501
 -2.6889 0.3524 -0.3613
 -2.6889 2.1293 -0.3603
 -1.1500 1.2407 -0.3603
 -3.2020 1.2253 1.8902
 -1.6748 2.1338 1.8913
 -0.4140 0.0146 1.6736
 -1.9412 -0.8939 1.6726
 -3.4004 0.7223 5.0645
 -5.0306 -0.6384 3.9443
 -3.7295 -1.4099 3.0115
 -4.6733 -2.9850 4.6656
 -2.9819 -2.6024 5.0540
 -4.3875 -2.5160 7.0849
 -3.7492 -0.9048 6.6915
 -5.9519 -0.2080 6.0373
 -9.5356 -1.9323 6.7062
 -8.6798 -0.4461 7.1717
 -8.8478 -1.6009 4.3583
 -9.7423 -0.1872 4.9576
 -7.9718 -0.1247 4.8183
@<BUDE>CONF  1   
 0.0015 -0.0167 0.0014
 0.0010 -0.0175 1.5274
 -1.4400 0.0011 2.0353
 -1.4406 0.0000 3.8453
 -0.7665 1.1675 4.3220
 -0.7660 -1.1670 4.3224
 -3.0903 0.0010 4.4291
 -4.0273 1.0412 3.9813
 -3.9994 2.2089 4.9664
 -4.4284 1.7184 6.3485
 -4.4016 2.8417 7.2963
 -2.9610 3.1564 8.2388
 -2.6719 2.0214 9.0593
 -1.8609 3.4020 7.3589
 -3.2320 4.6068 9.2871
 -3.5230 5.8206 8.4092
 -0.4879 0.8852 -0.3603
 1.0272 -0.0433 -0.3603
 -0.5345 -0.8911 -0.3613
 0.5245 0.8639 1.8913
 0.5012 -0.9129 1.8902
 -1.9645 -0.8804 1.6726
 -1.9412 0.8964 1.6736
 -3.3980 -0.7132 5.0736
 -3.7340 1.3918 2.9939
 -5.0327 0.6278 3.9361
 -2.9905 2.6122 5.0212
 -4.6830 2.9846 4.6278
 -5.4372 1.3145 6.2923
 -3.7446 0.9421 6.6856
 -5.2145 3.4314 7.4030
 -4.0781 4.4240 9.9463
 -2.3412 4.7945 9.8828
 -4.4211 5.6366 7.8232
 -3.6728 6.6952 9.0387
 -2.6822 5.9938 7.7407
@<BUDE>CONF  1   
 -2.1598 -1.2456 -0.0001
 -2.1603 -1.2465 1.5259
 -1.4400 0.0011 2.0353
 -1.4406 0.0000 3.8453
 -0.7665 1.1675 4.3220
 -0.7660 -1.1670 4.3224
 -3.0903 0.0010 4.4291
 -3.3579 -0.0153 5.8744
 -3.4991 1.4191 6.3815
 -4.6685 2.0974 5.6694
 -5.9095 1.3653 5.9606
 -6.9099 1.8439 7.3144
 -6.1601 1.7234 8.5261
 -7.3252 3.2014 7.1429
 -8.3662 0.7721 7.3957
 -9.2385 1.1893 8.5763
 -1.1338 -1.2588 -0.3617
 -2.6842 -2.1271 -0.3628
 -2.6609 -0.3502 -0.3617
 -1.6470 -2.1344 1.8888
 -3.1859 -1.2458 1.8888
 -1.9528 0.8898 1.6736
 -0.4139 0.0013 1.6736
 -3.8579 0.0127 3.7728
 -4.2798 -0.5606 6.0657
 -2.5334 -0.5035 6.3897
 -3.6841 1.4075 7.4535
 -2.5818 1.9673 6.1770
 -4.7607 3.1230 6.0209
 -4.4890 2.0959 4.5963
 -6.1843 0.5866 5.3792
 -8.9354 0.8641 6.4731
 -8.0489 -0.2605 7.5255
 -9.5654 2.2180 8.4392
 -10.1071 0.5366 8.6331
 -8.6638 1.1103 9.4968
@<BUDE>CONF  1   
 0.0015 -0.0167 0.0014
 0.0010 -0.0175 1.5274
 -1.4400 0.0011 2.0353
 -1.4406 0.0000 3.8453
 -0.7665 1.1675 4.3220
 -0.7660 -1.1670 4.3224
 -3.0903 0.0010 4.4291
 -3.3579 -0.0153 5.8744
 -3.5132 -1.4603 6.3464
 -3.7914 -1.4772 7.8488
 -5.0391 -0.7501 8.1234
 -6.5595 -1.6145 8.1851
 -7.6031 -0.7150 8.5682
 -6.8492 -2.1604 6.8956
 -6.4418 -2.9545 9.3961
 -7.7676 -3.7083 9.4499
 -0.4879 0.8852 -0.3603
 1.0272 -0.0433 -0.3603
 -0.5345 -0.8911 -0.3613
 0.5245 0.8639 1.8913
 0.5012 -0.9129 1.8902
 -1.9645 -0.8804 1.6726
 -1.9412 0.8964 1.6736
 -3.8579 0.0127 3.7728
 -2.5286 0.4519 6.4014
 -4.2743 0.5343 6.0791
 -4.3422 -1.9265 5.8183
 -2.5965 -2.0089 6.1404
 -3.8888 -2.5067 8.1874
 -2.9683 -0.9982 8.3748
 -5.0183 0.2480 8.2764
 -5.6471 -3.6377 9.1040
 -6.2207 -2.5380 10.3766
 -7.9814 -4.1349 8.4722
 -7.7012 -4.5054 10.1874
 -8.5637 -3.0210 9.7285
@<BUDE>CONF  1   
 -2.1598 -1.2456 -0.0001
 -2.1603 -1.2465 1.5259
 -1.4400 0.0011 2.0353
 -1.4406 0.0000 3.8453
 -0.7665 1.1675 4.3220
 -0.7660 -1.1670 4.3224
 -3.0903 0.0010 4.4291
 -3.3579 -0.0153 5.8744
 -3.4991 1.4191 6.3815
 -3.7773 1.4021 7.8839
 -5.0321 0.6808 8.1409
 -6.5440 1.5583 8.2238
 -6.8368 2.1237 6.9434
 -7.5933 0.6635 8.6020
 -6.4059 2.8812 9.4514
 -6.1108 2.2748 10.8204
 -1.1338 -1.2588 -0.3617
 -2.6842 -2.1271 -0.3628
 -2.6609 -0.3502 -0.3617
 -1.6470 -2.1344 1.8888
 -3.1859 -1.2458 1.8888
 -1.9528 0.8898 1.6736
 -0.4139 0.0013 1.6736
 -3.8579 0.0127 3.7728
 -4.2798 -0.5606 6.0657
 -2.5334 -0.5035 6.3897
 -2.5770 1.9634 6.1891
 -4.3233 1.9063 5.8648
 -2.9590 0.9022 8.3980
 -3.8644 2.4239 8.2475
 -5.0211 -0.3209 8.2694
 -5.5980 3.5533 9.1701
 -7.3414 3.4351 9.4935
 -5.1689 1.7316 10.7803
 -6.0410 3.0689 11.5607
 -6.9125 1.5921 11.0944
@<BUDE>CONF  1   
 -2.1598 -1.2456 -0.0001
 -2.1603 -1.2465 1.5259
 -1.4400 0.0011 2.0353
 -1.4406 0.0000 3.8453
 -0.7665 1.1675 4.3220
 -0.7660 -1.1670 4.3224
 -3.0903 0.0010 4.4291
 -3.3579 -0.0153 5.8744
 -3.4991 1.4191 6.3815
 -4.6685 2.0974 5.6694
 -5.9095 1.3653 5.9606
 -6.9099 1.8439 7.3144
 -6.1601 1.7234 8.5261
 -7.3252 3.2014 7.1429
 -8.3662 0.7721 7.3957
 -7.9218 -0.6740 7.5964
 -1.1338 -1.2588 -0.3617
 -2.6842 -2.1271 -0.3628
 -2.6609 -0.3502 -0.3617
 -1.6470 -2.1344 1.8888
 -3.1859 -1.2458 1.8888
 -1.9528 0.8898 1.6736
 -0.4139 0.0013 1.6736
 -3.8579 0.0127 3.7728
 -4.2798 -0.5606 6.0657
 -2.5334 -0.5035 6.3897
 -3.6841 1.4075 7.4535
 -2.5818 1.9673 6.1770
 -4.7607 3.1230 6.0209
 -4.4890 2.0959 4.5963
 -6.1843 0.5866 5.3792
 -8.9947 1.0779 8.2294
 -8.9282 0.8539 6.4677
 -7.3707 -0.7570 8.5308
 -8.7965 -1.3199 7.6319
 -7.2818 -0.9742 6.7693
@<BUDE>CONF  1   
 -2.1598 -1.2456 -0.0001
 -2.1603 -1.2465 1.5259
 -1.4400 0.0011 2.0353
 -1.4406 0.0000 3.8453
 -0.7665 1.1675 4.3220
 -0.7660 -1.1670 4.3224
 -3.0903 0.0010 4.4291
 -3.3579 -0.0153 5.8744
 -3.5132 -1.4603 6.3464
 -3.7914 -1.4772 7.8488
 -5.0391 -0.7501 8.1234
 -6.5595 -1.6145 8.1851
 -7.6031 -0.7150 8.5682
 -6.8492 -2.1604 6.8956
 -6.4418 -2.9545 9.3961
 -7.7676 -3.7083 9.4499
 -1.1338 -1.2588 -0.3617
 -2.6842 -2.1271 -0.3628
 -2.6609 -0.3502 -0.3617
 -1.6470 -2.1344 1.8888
 -3.1859 -1.2458 1.8888
 -1.9528 0.8898 1.6736
 -0.4139 0.0013 1.6736
 -3.8579 0.0127 3.7728
 -2.5286 0.4519 6.4014
 -4.2743 0.5343 6.0791
 -4.3422 -1.9265 5.8183
 -2.5965 -2.0089 6.1404
 -3.8888 -2.5067 8.1874
 -2.9683 -0.9982 8.3748
 -5.0183 0.2480 8.2764
 -5.6471 -3.6377 9.1040
 -6.2207 -2.5380 10.3766
 -7.9814 -4.1349 8.4722
 -7.7012 -4.5054 10.1874
 -8.5637 -3.0210 9.7285
@<BUDE>CONF  1   
 0.0015 -0.0167 0.0014
 0.0010 -0.0175 1.5274
 -1.4400 0.0011 2.0353
 -1.4406 0.0000 3.8453
 -0.7665 1.1675 4.3220
 -0.7660 -1.1670 4.3224
 -3.0903 0.0010 4.4291
 -4.0273 1.0412 3.9813
 -3.9994 2.2089 4.9664
 -4.9734 3.2903 4.5008
 -6.3345 2.7367 4.4572
 -7.3830 2.8827 5.8508
 -8.6768 2.3655 5.5291
 -6.8303 2.1418 6.9418
 -7.5275 4.6260 6.3157
 -8.1337 5.4121 5.1566
 -0.4879 0.8852 -0.3603
 1.0272 -0.0433 -0.3603
 -0.5345 -0.8911 -0.3613
 0.5245 0.8639 1.8913
 0.5012 -0.9129 1.8902
 -1.9645 -0.8804 1.6726
 -1.9412 0.8964 1.6736
 -3.3980 -0.7132 5.0736
 -3.7340 1.3918 2.9939
 -5.0327 0.6278 3.9361
 -4.2922 1.8569 5.9533
 -2.9934 2.6209 5.0111
 -4.9438 4.1275 5.1952
 -4.6879 3.6315 3.5079
 -6.6639 2.2723 3.6230
 -8.1686 4.7156 7.1901
 -6.5408 5.0221 6.5465
 -9.1254 5.0232 4.9350
 -8.2082 6.4622 5.4312
 -7.4989 5.3102 4.2788
