@<TRIPOS>MOLECULE
ZINC61153122
   55    58     0     0     0
SMALL
USER_CHARGES

@<TRIPOS>ATOM
      1 C1          1.8722    5.0919    0.2512 C.ar      1 <0>        -0.0442
      2 C2          3.0644    5.7850    0.2743 C.ar      1 <0>        -0.1492
      3 C3          4.2682    5.0991    0.2448 C.ar      1 <0>         0.1157
      4 C4          4.2814    3.7143    0.1920 C.ar      1 <0>        -0.1468
      5 C5          3.0951    3.0113    0.1681 C.ar      1 <0>        -0.0895
      6 C6          1.8797    3.6971    0.1980 C.ar      1 <0>        -0.0299
      7 C7          0.6050    2.9488    0.1735 C.2       1 <0>         0.2272
      8 N1         -0.5732    3.4027    0.5327 N.2       1 <0>        -0.2636
      9 N2         -1.4610    2.4858    0.3829 N.2       1 <0>        -0.2879
     10 C8         -0.9040    1.3898   -0.0814 C.2       1 <0>         0.1630
     11 N3          0.4286    1.6472   -0.2358 N.pl3     1 <0>        -0.4552
     12 C9          1.4561    0.7282   -0.7317 C.3       1 <0>         0.0974
     13 C10         1.9929   -0.1111    0.4294 C.3       1 <0>         0.0332
     14 N4          3.0232   -1.0326   -0.0679 N.3       1 <0>        -0.5315
     15 C11         2.4418   -2.0333   -0.9745 C.3       1 <0>         0.0093
     16 C12         3.5563   -2.9334   -1.5146 C.3       1 <0>         0.0640
     17 O1          4.2501   -3.5346   -0.4180 O.3       1 <0>        -0.3828
     18 C13         4.8295   -2.5888    0.4849 C.3       1 <0>         0.0640
     19 C14         3.7279   -1.6853    1.0452 C.3       1 <0>         0.0177
     20 S1         -1.7244   -0.1270   -0.4435 S.3       1 <0>         0.0123
     21 C15        -3.4592    0.2024   -0.0285 C.3       1 <0>        -0.0946
     22 C16        -4.2952   -1.0500   -0.2997 C.3       1 <0>         0.1064
     23 C17        -5.7754   -0.7359   -0.0675 C.3       1 <0>        -0.1441
     24 C18        -6.5993   -2.0093   -0.2822 C.3       1 <0>        -0.1224
     25 C19        -6.0827   -3.1030    0.6576 C.3       1 <0>        -0.1591
     26 C20        -4.5906   -3.3257    0.3974 C.3       1 <0>         0.0610
     27 O2         -3.8871   -2.0959    0.5844 O.3       1 <0>        -0.3733
     28 F1          5.4331    5.7829    0.2673 F         1 <0>        -0.1330
     29 H1          0.9346    5.6272    0.2786 H         1 <0>         0.1477
     30 H2          3.0597    6.8642    0.3151 H         1 <0>         0.1461
     31 H3          5.2224    3.1847    0.1693 H         1 <0>         0.1443
     32 H4          3.1065    1.9322    0.1262 H         1 <0>         0.1448
     33 H5          1.0224    0.0707   -1.4852 H         1 <0>         0.1036
     34 H6          2.2718    1.2998   -1.1744 H         1 <0>         0.1173
     35 H7          2.4266    0.5463    1.1829 H         1 <0>         0.0884
     36 H8          1.1772   -0.6828    0.8721 H         1 <0>         0.0565
     37 H9          1.7162   -2.6386   -0.4313 H         1 <0>         0.0519
     38 H10         1.9473   -1.5286   -1.8045 H         1 <0>         0.0874
     39 H11         3.1232   -3.7122   -2.1422 H         1 <0>         0.1012
     40 H12         4.2533   -2.3365   -2.1029 H         1 <0>         0.0619
     41 H13         5.3172   -3.1185    1.3033 H         1 <0>         0.1015
     42 H14         5.5635   -1.9820   -0.0453 H         1 <0>         0.0623
     43 H15         4.1721   -0.9266    1.6895 H         1 <0>         0.0895
     44 H16         3.0228   -2.2850    1.6207 H         1 <0>         0.0491
     45 H17        -3.5363    0.4696    1.0254 H         1 <0>         0.1064
     46 H18        -3.8291    1.0255   -0.6400 H         1 <0>         0.1120
     47 H19        -4.1485   -1.3685   -1.3317 H         1 <0>         0.0703
     48 H20        -5.9164   -0.3786    0.9526 H         1 <0>         0.0780
     49 H21        -6.0999    0.0308   -0.7710 H         1 <0>         0.0792
     50 H22        -7.6478   -1.8064   -0.0640 H         1 <0>         0.0726
     51 H23        -6.4979   -2.3392   -1.3162 H         1 <0>         0.0656
     52 H24        -6.2298   -2.7936    1.6923 H         1 <0>         0.0734
     53 H25        -6.6269   -4.0292    0.4725 H         1 <0>         0.0757
     54 H26        -4.2079   -4.0728    1.0927 H         1 <0>         0.0972
     55 H27        -4.4480   -3.6740   -0.6256 H         1 <0>         0.0518
@<TRIPOS>BOND
     1    1    6 ar
     2    1    2 ar
     3    1   29 1
     4    2    3 ar
     5    2   30 1
     6    3    4 ar
     7    3   28 1
     8    4    5 ar
     9    4   31 1
    10    5    6 ar
    11    5   32 1
    12    6    7 1
    13    7   11 1
    14    7    8 2
    15    8    9 1
    16    9   10 2
    17   10   11 1
    18   10   20 1
    19   11   12 1
    20   12   13 1
    21   12   33 1
    22   12   34 1
    23   13   14 1
    24   13   35 1
    25   13   36 1
    26   14   19 1
    27   14   15 1
    28   15   16 1
    29   15   37 1
    30   15   38 1
    31   16   17 1
    32   16   39 1
    33   16   40 1
    34   17   18 1
    35   18   19 1
    36   18   41 1
    37   18   42 1
    38   19   43 1
    39   19   44 1
    40   20   21 1
    41   21   22 1
    42   21   45 1
    43   21   46 1
    44   22   27 1
    45   22   23 1
    46   22   47 1
    47   23   24 1
    48   23   48 1
    49   23   49 1
    50   24   25 1
    51   24   50 1
    52   24   51 1
    53   25   26 1
    54   25   52 1
    55   25   53 1
    56   26   27 1
    57   26   54 1
    58   26   55 1
@<BUDE>CONF  1
    0.2760    1.4929   -3.2223
    0.0018    2.3267   -4.3129
   -0.9290    1.9298   -5.2803
   -1.5672    0.6912   -5.1712
   -1.2970   -0.1426   -4.0797
   -0.3825    0.2635   -3.1006
   -0.1142   -0.6085   -1.9352
   -0.0453   -1.9233   -2.0301
    0.2205   -2.3828   -0.6998
    0.2819   -1.2954    0.0458
    0.0821   -0.1400   -0.6629
    0.0825    1.2538   -0.1959
    1.5229    1.7369   -0.0329
    1.5216    3.1360    0.4179
    0.8626    4.1308   -0.4882
    0.9337    5.5638    0.0712
    2.2958    5.9167    0.3258
    2.9093    5.0354    1.2702
    2.8818    3.5903    0.7406
    0.5866   -1.2744    1.7892
    0.8029   -2.9799    2.3867
   -0.4714   -3.7786    2.1167
   -1.6531   -3.2318    2.9391
   -2.8933   -4.1209    2.7318
   -2.5395   -5.5791    3.0781
   -1.3210   -6.0348    2.2537
   -0.2000   -5.1756    2.4825
   -1.2029    2.7415   -6.3237
    0.9960    1.7953   -2.4763
    0.5054    3.2766   -4.4148
   -2.2725    0.3868   -5.9303
   -1.7896   -1.0998   -3.9929
   -0.4304    1.3149    0.7617
   -0.4308    1.8805   -0.9221
    2.0397    1.6631   -0.9875
    2.0310    1.1183    0.7040
   -0.1771    3.8582   -0.6565
    1.3536    4.1894   -1.4573
    0.4932    6.2742   -0.6252
    0.3994    5.6438    1.0157
    3.9370    5.3402    1.4563
    2.3584    5.1169    2.2048
    3.3037    2.9436    1.5071
    3.5263    3.5430   -0.1347
    1.0033   -2.9661    3.4560
    1.6388   -3.4425    1.8663
   -0.6985   -3.7211    1.0542
   -1.3807   -3.2520    3.9922
   -1.8718   -2.2019    2.6646
   -3.1929   -4.0707    1.6870
   -3.7262   -3.7708    3.3379
   -2.2794   -5.6329    4.1332
   -3.3920   -6.2328    2.9060
   -1.5644   -6.0531    1.1935
   -1.0259   -7.0406    2.5455
@<BUDE>CONF  2
    0.2776    1.5653   -3.4475
    0.0034    2.3991   -4.5381
   -0.9274    2.0022   -5.5055
   -1.5656    0.7636   -5.3964
   -1.2954   -0.0702   -4.3049
   -0.3809    0.3359   -3.3258
   -0.1126   -0.5361   -2.1604
   -0.0437   -1.8509   -2.2553
    0.2221   -2.3104   -0.9250
    0.2835   -1.2230   -0.1794
    0.0837   -0.0676   -0.8881
    0.0841    1.3262   -0.4211
    1.5245    1.8093   -0.2581
    1.5232    3.2084    0.1927
    0.8528    3.4890    1.5030
    0.9248    4.9789    1.8861
    2.2882    5.4099    1.8981
    2.9130    5.2439    0.6226
    2.8850    3.7616    0.2086
    0.5882   -1.2020    1.5640
    0.8045   -2.9075    2.1615
   -0.4698   -3.7062    1.8915
   -1.6515   -3.1594    2.7139
   -2.8917   -4.0485    2.5066
   -2.5379   -5.5067    2.8529
   -1.3194   -5.9624    2.0285
   -0.1984   -5.1032    2.2573
   -1.2013    2.8139   -6.5489
    0.9976    1.8677   -2.7015
    0.5070    3.3490   -4.6400
   -2.2709    0.4592   -6.1555
   -1.7880   -1.0274   -4.2181
   -0.4288    1.3873    0.5365
   -0.4292    1.9529   -1.1473
    2.0413    1.7355   -1.2127
    2.0326    1.1907    0.4788
    1.3005    2.8894    2.2928
   -0.2112    3.2636    1.4747
    0.3526    5.5867    1.1883
    0.5260    5.1476    2.8842
    2.4032    5.8455   -0.1270
    3.9361    5.6044    0.7061
    3.4908    3.2029    0.9190
    3.3503    3.6796   -0.7714
    1.0049   -2.8937    3.2308
    1.6404   -3.3701    1.6411
   -0.6969   -3.6487    0.8290
   -1.3791   -3.1796    3.7670
   -1.8702   -2.1295    2.4394
   -3.1913   -3.9983    1.4618
   -3.7246   -3.6984    3.1127
   -2.2778   -5.5605    3.9080
   -3.3904   -6.1604    2.6808
   -1.5628   -5.9807    0.9683
   -1.0243   -6.9682    2.3203
@<BUDE>CONF  3
   -0.1341    2.2384   -3.4236
   -0.4083    3.0722   -4.5142
   -1.3391    2.6753   -5.4816
   -1.9773    1.4367   -5.3725
   -1.7071    0.6029   -4.2810
   -0.7926    1.0090   -3.3019
   -0.5243    0.1370   -2.1365
   -0.4554   -1.1778   -2.2314
   -0.1896   -1.6373   -0.9011
   -0.1282   -0.5499   -0.1555
   -0.3280    0.6055   -0.8642
   -0.3276    1.9993   -0.3972
    1.1128    2.4824   -0.2342
    1.7614    1.7299    0.8493
    2.9711    1.0197    0.3738
    4.1415    1.9796    0.0906
    4.4208    2.7591    1.2565
    3.2907    3.5343    1.6651
    2.1000    2.6100    1.9770
    0.1765   -0.5289    1.5879
    0.3928   -2.2344    2.1854
   -0.8815   -3.0331    1.9154
   -2.0632   -2.4863    2.7378
   -3.3034   -3.3754    2.5305
   -2.9496   -4.8336    2.8768
   -1.7311   -5.2893    2.0524
   -0.6101   -4.4301    2.2812
   -1.6130    3.4870   -6.5250
    0.5859    2.5408   -2.6776
    0.0953    4.0221   -4.6161
   -2.6826    1.1323   -6.1316
   -2.1997   -0.3543   -4.1942
   -0.8405    2.0604    0.5604
   -0.8409    2.6260   -1.1234
    1.1137    3.5429    0.0088
    1.6558    2.3221   -1.1633
    2.7441    0.4496   -0.5246
    3.3572    0.3281    1.1196
    5.0317    1.4289   -0.2060
    3.8947    2.6750   -0.7089
    3.5383    4.1255    2.5442
    3.0489    4.2188    0.8549
    1.2420    3.2357    2.2139
    2.3506    2.0296    2.8625
    0.5932   -2.2206    3.2547
    1.2287   -2.6970    1.6650
   -1.1086   -2.9756    0.8529
   -1.7908   -2.5065    3.7909
   -2.2819   -1.4564    2.4633
   -3.6030   -3.3252    1.4857
   -4.1363   -3.0253    3.1366
   -2.6895   -4.8874    3.9319
   -3.8021   -5.4873    2.7047
   -1.9745   -5.3076    0.9922
   -1.4360   -6.2951    2.3442
@<BUDE>CONF  4
   -0.5098    0.8358   -3.9756
   -0.7840    1.6696   -5.0662
   -1.7148    1.2727   -6.0336
   -2.3530    0.0341   -5.9245
   -2.0828   -0.7997   -4.8330
   -1.1683   -0.3936   -3.8539
   -0.9000   -1.2656   -2.6885
   -0.8311   -2.5804   -2.7834
   -0.5653   -3.0399   -1.4531
   -0.5039   -1.9525   -0.7075
   -0.7037   -0.7971   -1.4162
   -0.7033    0.5967   -0.9492
    0.7371    1.0798   -0.7862
    0.7358    2.4789   -0.3354
    0.0768    3.4737   -1.2415
    0.1479    4.9067   -0.6821
    1.5100    5.2596   -0.4275
    2.1235    4.3783    0.5169
    2.0960    2.9332   -0.0127
   -0.1992   -1.9315    1.0359
    0.0171   -3.6370    1.6334
    0.2801   -3.6189    3.1385
   -0.9463   -3.0958    3.9092
   -0.6156   -2.9846    5.4092
    0.6341   -2.1036    5.5923
    1.7989   -2.6620    4.7536
    1.4383   -2.7452    3.3714
   -1.9887    2.0844   -7.0770
    0.2102    1.1382   -3.2296
   -0.2804    2.6195   -5.1681
   -3.0583   -0.2703   -6.6836
   -2.5754   -1.7569   -4.7462
   -1.2162    0.6578    0.0084
   -1.2166    1.2234   -1.6754
    1.2539    1.0060   -1.7408
    1.2452    0.4612   -0.0493
   -0.9629    3.2011   -1.4098
    0.5678    3.5323   -2.2106
   -0.2926    5.6171   -1.3785
   -0.3864    4.9867    0.2624
    3.1512    4.6831    0.7030
    1.5726    4.4598    1.4515
    2.5179    2.2865    0.7538
    2.7405    2.8859   -0.8880
    0.8614   -4.0953    1.1225
   -0.8854   -4.2093    1.4292
    0.5197   -4.6299    3.4611
   -1.1960   -2.1062    3.5321
   -1.8058   -3.7448    3.7551
   -0.4051   -3.9784    5.7988
   -1.4596   -2.5780    5.9625
    0.4073   -1.1000    5.2390
    0.9079   -2.0385    6.6433
    2.0953   -3.6428    5.1196
    2.6624   -2.0041    4.8263
@<BUDE>CONF  5
    0.2885    1.4897   -3.2127
    0.0143    2.3235   -4.3033
   -0.9165    1.9266   -5.2707
   -1.5547    0.6880   -5.1616
   -1.2845   -0.1458   -4.0701
   -0.3700    0.2603   -3.0910
   -0.1017   -0.6117   -1.9256
   -0.0328   -1.9265   -2.0205
    0.2330   -2.3860   -0.6902
    0.2944   -1.2986    0.0554
    0.0946   -0.1432   -0.6533
    0.0950    1.2506   -0.1863
    1.5354    1.7337   -0.0233
    1.5341    3.1328    0.4275
    2.8446    3.6860    0.8980
    2.7327    5.1600    1.3295
    2.1960    5.9387    0.2569
    0.8974    5.4861   -0.1351
    0.9656    4.0195   -0.5978
    0.5991   -1.2776    1.7988
    0.8154   -2.9831    2.3963
   -0.4589   -3.7818    2.1263
   -1.6406   -3.2350    2.9487
   -2.8808   -4.1241    2.7414
   -2.5270   -5.5823    3.0877
   -1.3085   -6.0380    2.2633
   -0.1875   -5.1788    2.4921
   -1.1904    2.7383   -6.3141
    1.0085    1.7921   -2.4667
    0.5179    3.2734   -4.4052
   -2.2600    0.3836   -5.9207
   -1.7771   -1.1030   -3.9833
   -0.4179    1.3117    0.7713
   -0.4183    1.8773   -0.9125
    2.0522    1.6599   -0.9779
    2.0435    1.1151    0.7136
    3.5965    3.5927    0.1172
    3.2138    3.1684    1.7809
    2.1002    5.2596    2.2092
    3.7096    5.5744    1.5695
    0.2005    5.5784    0.6953
    0.5513    6.1313   -0.9397
    1.5848    3.9777   -1.4915
   -0.0410    3.7075   -0.8683
    1.0158   -2.9693    3.4656
    1.6513   -3.4457    1.8759
   -0.6860   -3.7243    1.0638
   -1.3682   -3.2552    4.0018
   -1.8593   -2.2051    2.6742
   -3.1804   -4.0739    1.6966
   -3.7137   -3.7740    3.3475
   -2.2669   -5.6361    4.1428
   -3.3795   -6.2360    2.9156
   -1.5519   -6.0563    1.2031
   -1.0134   -7.0438    2.5551
@<BUDE>CONF  6
   -0.9198    1.5813   -4.1769
   -1.1940    2.4151   -5.2675
   -2.1248    2.0182   -6.2349
   -2.7630    0.7796   -6.1258
   -2.4928   -0.0542   -5.0343
   -1.5783    0.3519   -4.0552
   -1.3100   -0.5201   -2.8898
   -1.2411   -1.8349   -2.9847
   -0.9753   -2.2944   -1.6544
   -0.9139   -1.2070   -0.9088
   -1.1137   -0.0516   -1.6175
   -1.1133    1.3422   -1.1505
    0.3271    1.8253   -0.9875
    0.9757    1.0728    0.0960
    2.1854    0.3626   -0.3795
    3.3558    1.3225   -0.6627
    3.6351    2.1020    0.5032
    2.5050    2.8772    0.9118
    1.3143    1.9529    1.2237
   -0.6092   -1.1860    0.8346
   -0.3929   -2.8915    1.4321
   -0.1299   -2.8734    2.9372
   -1.3563   -2.3503    3.7079
   -1.0256   -2.2391    5.2079
    0.2241   -1.3581    5.3910
    1.3889   -1.9165    4.5523
    1.0283   -1.9997    3.1701
   -2.3987    2.8299   -7.2783
   -0.1998    1.8837   -3.4309
   -0.6904    3.3650   -5.3694
   -3.4683    0.4752   -6.8849
   -2.9854   -1.0114   -4.9475
   -1.6262    1.4033   -0.1929
   -1.6266    1.9689   -1.8767
    0.3280    2.8858   -0.7445
    0.8701    1.6650   -1.9166
    1.9584   -0.2075   -1.2779
    2.5715   -0.3290    0.3663
    4.2460    0.7718   -0.9593
    3.1090    2.0179   -1.4622
    2.7526    3.4684    1.7909
    2.2632    3.5617    0.1016
    0.4563    2.5786    1.4606
    1.5649    1.3725    2.1092
    0.4514   -3.3498    0.9212
   -1.2954   -3.4638    1.2279
    0.1097   -3.8844    3.2598
   -1.6060   -1.3607    3.3308
   -2.2158   -2.9993    3.5538
   -0.8151   -3.2329    5.5975
   -1.8696   -1.8325    5.7612
   -0.0027   -0.3545    5.0377
    0.4979   -1.2930    6.4420
    1.6853   -2.8973    4.9183
    2.2524   -1.2586    4.6250
@<BUDE>CONF  7
   -0.4420    1.2675   -4.2167
   -0.7162    2.1013   -5.3073
   -1.6470    1.7044   -6.2747
   -2.2852    0.4658   -6.1656
   -2.0150   -0.3680   -5.0741
   -1.1005    0.0381   -4.0950
   -0.8322   -0.8339   -2.9296
   -0.7633   -2.1487   -3.0245
   -0.4975   -2.6082   -1.6942
   -0.4361   -1.5208   -0.9486
   -0.6359   -0.3654   -1.6573
   -0.6355    1.0284   -1.1903
    0.8049    1.5115   -1.0273
    0.8036    2.9106   -0.5765
    0.1332    3.1912    0.7338
    0.2052    4.6811    1.1169
    1.5686    5.1121    1.1289
    2.1934    4.9461   -0.1466
    2.1654    3.4638   -0.5606
   -0.1314   -1.4998    0.7948
    0.0849   -3.2053    1.3923
    0.3479   -3.1872    2.8974
    0.6476   -4.6027    3.4247
    0.7995   -4.5710    4.9569
   -0.4623   -3.9478    5.5821
   -0.7222   -2.5591    4.9689
   -0.8539   -2.6459    3.5468
   -1.9209    2.5161   -7.3181
    0.2780    1.5699   -3.4707
   -0.2126    3.0512   -5.4092
   -2.9905    0.1614   -6.9247
   -2.5076   -1.3252   -4.9873
   -1.1484    1.0895   -0.2327
   -1.1488    1.6551   -1.9165
    1.3217    1.4377   -1.9819
    1.3130    0.8929   -0.2904
    0.5809    2.5916    1.5236
   -0.9308    2.9658    0.7055
   -0.3670    5.2889    0.4191
   -0.1936    4.8498    2.1150
    1.6836    5.5477   -0.8962
    3.2165    5.3066   -0.0631
    2.7712    2.9051    0.1498
    2.6307    3.3818   -1.5406
    0.9292   -3.6636    0.8814
   -0.8176   -3.7776    1.1881
    1.1920   -2.5296    3.0942
   -0.1879   -5.2513    3.1698
    1.5450   -5.0066    2.9607
    1.6594   -3.9558    5.2137
    0.9719   -5.5710    5.3495
   -1.3138   -4.5867    5.3577
   -0.3636   -3.8831    6.6637
    0.0821   -1.8731    5.2261
   -1.6504   -2.1454    5.3577
