@<TRIPOS>MOLECULE
ZINC61234762
   46    49     0     0     0
SMALL
USER_CHARGES

@<TRIPOS>ATOM
      1 C1          0.5375    7.0310   -0.1640 C.3       1 <0>        -0.1124
      2 C2          0.5589    5.5242   -0.1565 C.ar      1 <0>        -0.0668
      3 C3          0.5561    4.8289   -1.3576 C.ar      1 <0>        -0.1269
      4 C4          0.5753    3.4631   -1.3721 C.ar      1 <0>        -0.0588
      5 C5          0.5985    2.7542   -0.1680 C.ar      1 <0>         0.0434
      6 C6          0.6018    3.4577    1.0482 C.ar      1 <0>         0.0556
      7 C7          0.5869    4.8459    1.0433 C.ar      1 <0>        -0.1153
      8 N1          0.6262    2.5000    2.0423 N.pl3     1 <0>        -0.5942
      9 C8          0.6368    1.2840    1.4324 C.2       1 <0>         0.2752
     10 N2          0.6206    1.4320    0.1398 N.2       1 <0>        -0.4719
     11 C9          0.6638   -0.0412    2.1494 C.3       1 <0>         0.2194
     12 C10         2.1227   -0.4481    2.4454 C.3       1 <0>        -0.1240
     13 C11         2.1118   -1.9808    2.2040 C.3       1 <0>        -0.1317
     14 C12         1.1176   -2.1025    1.0223 C.3       1 <0>         0.0944
     15 N3          0.0848   -1.0856    1.2918 N.am      1 <0>        -0.5969
     16 C13        -1.1808   -1.1097    0.8291 C.2       1 <0>         0.5882
     17 O1         -1.9798   -0.2723    1.2005 O.2       1 <0>        -0.5236
     18 C14        -1.5974   -2.1547   -0.1305 C.ar      1 <0>        -0.0888
     19 C15        -2.9419   -2.5167   -0.2319 C.ar      1 <0>        -0.0994
     20 C16        -3.3271   -3.4922   -1.1282 C.ar      1 <0>        -0.0862
     21 C17        -2.3852   -4.1139   -1.9274 C.ar      1 <0>        -0.1841
     22 C18        -1.0461   -3.7606   -1.8336 C.ar      1 <0>         0.1199
     23 C19        -0.6493   -2.7782   -0.9416 C.ar      1 <0>        -0.1264
     24 O2         -0.1246   -4.3752   -2.6212 O.3       1 <0>        -0.3151
     25 C20        -0.6048   -5.3751   -3.5221 C.3       1 <0>         0.0259
     26 H1          1.5597    7.4088   -0.1816 H         1 <0>         0.0723
     27 H2          0.0050    7.3824   -1.0478 H         1 <0>         0.0697
     28 H3          0.0322    7.3917    0.7319 H         1 <0>         0.0661
     29 H4          0.5382    5.3732   -2.2902 H         1 <0>         0.1296
     30 H5          0.5722    2.9321   -2.3125 H         1 <0>         0.1284
     31 H6          0.5931    5.3919    1.9751 H         1 <0>         0.1225
     32 H7          0.1002    0.0292    3.0797 H         1 <0>         0.0993
     33 H8          2.8082    0.0458    1.7567 H         1 <0>         0.0861
     34 H9          2.3839   -0.2224    3.4793 H         1 <0>         0.0925
     35 H10         3.1015   -2.3387    1.9204 H         1 <0>         0.0935
     36 H11         1.7426   -2.5118    3.0814 H         1 <0>         0.0832
     37 H12         1.6216   -1.8906    0.0793 H         1 <0>         0.0807
     38 H13         0.6737   -3.0977    1.0010 H         1 <0>         0.0890
     39 H14        -3.6800   -2.0337    0.3912 H         1 <0>         0.1351
     40 H15        -4.3675   -3.7714   -1.2058 H         1 <0>         0.1337
     41 H16        -2.6925   -4.8774   -2.6267 H         1 <0>         0.1331
     42 H17         0.3916   -2.4992   -0.8708 H         1 <0>         0.1477
     43 H18        -1.0857   -6.1732   -2.9565 H         1 <0>         0.0569
     44 H19        -1.3260   -4.9302   -4.2077 H         1 <0>         0.0568
     45 H20         0.2310   -5.7846   -4.0894 H         1 <0>         0.1028
     46 H21         0.6346    2.6637    2.9983 H         1 <0>         0.4217
@<TRIPOS>BOND
     1    1    2 1
     2    1   26 1
     3    1   27 1
     4    1   28 1
     5    2    7 ar
     6    2    3 ar
     7    3    4 ar
     8    3   29 1
     9    4    5 ar
    10    4   30 1
    11    5   10 1
    12    5    6 ar
    13    6    7 ar
    14    6    8 1
    15    7   31 1
    16    8    9 1
    17    8   46 1
    18    9   10 2
    19    9   11 1
    20   11   15 1
    21   11   12 1
    22   11   32 1
    23   12   13 1
    24   12   33 1
    25   12   34 1
    26   13   14 1
    27   13   35 1
    28   13   36 1
    29   14   15 1
    30   14   37 1
    31   14   38 1
    32   15   16 am
    33   16   17 2
    34   16   18 1
    35   18   23 ar
    36   18   19 ar
    37   19   20 ar
    38   19   39 1
    39   20   21 ar
    40   20   40 1
    41   21   22 ar
    42   21   41 1
    43   22   23 ar
    44   22   24 1
    45   23   42 1
    46   24   25 1
    47   25   43 1
    48   25   44 1
    49   25   45 1
@<BUDE>CONF  1
   -5.6303    3.2001   -1.6763
   -4.5855    2.9978   -0.6054
   -4.8623    3.2752    0.7508
   -3.9035    3.0940    1.7546
   -2.6481    2.6176    1.3586
   -2.3509    2.3355    0.0436
   -3.3162    2.5208   -0.9533
   -1.0687    1.8959   -0.0167
   -0.5762    1.8969    1.1856
   -1.4714    2.3222    2.0575
    0.8305    1.4785    1.5410
    1.8372    2.5615    1.1109
    2.3155    2.1928   -0.3091
    2.4983    0.6651   -0.2442
    1.4612    0.2580    0.7146
    1.0723   -0.9978    0.9161
    0.1945   -1.2443    1.7416
    1.6952   -2.0988    0.1481
    2.6950   -1.8250   -0.7929
    3.2655   -2.8864   -1.5055
    2.8509   -4.2056   -1.2888
    1.8518   -4.4850   -0.3489
    1.2848   -3.4201    0.3616
    1.3785   -5.7398   -0.0687
    2.3223   -6.8116    0.0052
   -5.4590    2.4949   -2.4869
   -5.5643    4.2164   -2.0591
   -6.6189    3.0345   -1.2536
   -5.8463    3.6394    1.0069
   -4.0964    3.3041    2.7964
   -3.0721    2.2928   -1.9804
    0.8736    1.3278    2.6177
    1.3522    3.5354    1.1130
    2.6654    2.5966    1.8156
    3.2552    2.6899   -0.5405
    1.5818    2.4785   -1.0599
    2.3139    0.1798   -1.2004
    3.4806    0.3784    0.1253
    3.0152   -0.8071   -0.9588
    4.0383   -2.6962   -2.2357
    3.3228   -4.9879   -1.8647
    0.5153   -3.6346    1.0883
    3.0405   -6.6078    0.7966
    1.7987   -7.7408    0.2201
    2.8443   -6.9004   -0.9453
   -0.5811    1.6076   -0.8743
@<BUDE>CONF  2
   -5.5052    3.1230   -1.8101
   -4.4604    2.9207   -0.7391
   -4.7372    3.1981    0.6170
   -3.7784    3.0169    1.6209
   -2.5230    2.5405    1.2248
   -2.2258    2.2584   -0.0902
   -3.1911    2.4437   -1.0871
   -0.9436    1.8188   -0.1504
   -0.4511    1.8198    1.0519
   -1.3463    2.2451    1.9237
    0.9556    1.4014    1.4073
    1.9623    2.4844    0.9772
    2.4406    2.1157   -0.4429
    2.6234    0.5880   -0.3780
    1.5863    0.1809    0.5808
    1.1974   -1.0749    0.7824
    0.3196   -1.3214    1.6079
    1.8203   -2.1759    0.0143
    2.8201   -1.9021   -0.9266
    3.3906   -2.9635   -1.6393
    2.9760   -4.2827   -1.4226
    1.9769   -4.5621   -0.4827
    1.4099   -3.4972    0.2278
    1.5036   -5.8169   -0.2024
    1.2378   -6.1437    1.1642
   -5.3339    2.4178   -2.6207
   -5.4392    4.1393   -2.1929
   -6.4938    2.9574   -1.3873
   -5.7212    3.5623    0.8731
   -3.9713    3.2270    2.6626
   -2.9470    2.2157   -2.1141
    0.9987    1.2507    2.4840
    1.4773    3.4583    0.9793
    2.7905    2.5195    1.6819
    3.3803    2.6128   -0.6743
    1.7069    2.4014   -1.1937
    2.4390    0.1027   -1.3342
    3.6057    0.3013   -0.0084
    3.1403   -0.8842   -1.0925
    4.1634   -2.7733   -2.3694
    3.4479   -5.0650   -1.9985
    0.6404   -3.7117    0.9545
    0.4774   -5.4714    1.5560
    0.8832   -7.1702    1.2285
    2.1511   -6.0378    1.7460
   -0.4560    1.5305   -1.0081
@<BUDE>CONF  3
   -5.6546    4.5528    0.6211
   -4.5317    3.5580    0.4501
   -4.6726    2.4299   -0.3866
   -3.6411    1.4983   -0.5540
   -2.4504    1.7335    0.1438
   -2.2835    2.8271    0.9643
   -3.3213    3.7527    1.1259
   -1.0346    2.7750    1.4917
   -0.4393    1.7136    1.0367
   -1.2352    1.0428    0.2250
    0.9674    1.2952    1.3921
    1.9741    2.3782    0.9620
    2.4524    2.0095   -0.4581
    2.6352    0.4818   -0.3932
    1.5981    0.0747    0.5656
    1.2092   -1.1811    0.7672
    0.3314   -1.4276    1.5927
    1.8321   -2.2821   -0.0009
    2.8319   -2.0083   -0.9418
    3.4024   -3.0697   -1.6545
    2.9878   -4.3889   -1.4378
    1.9887   -4.6683   -0.4979
    1.4217   -3.6034    0.2126
    1.5154   -5.9231   -0.2176
    1.3177   -6.8248   -1.3098
   -5.2385    5.5362    0.8292
   -6.2888    4.2440    1.4494
   -6.2442    4.5937   -0.2923
   -5.6100    2.2928   -0.9052
   -3.7322    0.6280   -1.1870
   -3.1771    4.6080    1.7694
    1.0105    1.1445    2.4688
    1.4891    3.3521    0.9641
    2.8023    2.4133    1.6667
    3.3921    2.5066   -0.6895
    1.7187    2.2952   -1.2089
    2.4508   -0.0035   -1.3494
    3.6175    0.1951   -0.0236
    3.1521   -0.9904   -1.1077
    4.1752   -2.8795   -2.3846
    3.4597   -5.1712   -2.0137
    0.6522   -3.8179    0.9393
    2.2667   -6.9972   -1.8132
    0.9291   -7.7689   -0.9339
    0.6072   -6.3931   -2.0116
   -0.6349    3.4679    2.1373
@<BUDE>CONF  4
   -5.6475    4.4933    0.3667
   -4.5246    3.4985    0.1957
   -4.6655    2.3704   -0.6410
   -3.6340    1.4388   -0.8084
   -2.4433    1.6740   -0.1106
   -2.2764    2.7676    0.7099
   -3.3142    3.6932    0.8715
   -1.0275    2.7155    1.2373
   -0.4322    1.6541    0.7823
   -1.2281    0.9833   -0.0294
    0.9745    1.2357    1.1377
    1.9812    2.3187    0.7076
    2.4595    1.9500   -0.7125
    2.6423    0.4223   -0.6476
    1.6052    0.0152    0.3112
    1.2163   -1.2406    0.5128
    0.3385   -1.4871    1.3383
    1.8392   -2.3416   -0.2553
    2.8390   -2.0678   -1.1962
    3.4095   -3.1292   -1.9089
    2.9949   -4.4484   -1.6922
    1.9958   -4.7278   -0.7523
    1.4288   -3.6629   -0.0418
    1.5225   -5.9826   -0.4720
    1.2567   -6.3094    0.8946
   -5.2314    5.4767    0.5748
   -6.2817    4.1845    1.1950
   -6.2371    4.5342   -0.5467
   -5.6029    2.2333   -1.1596
   -3.7251    0.5685   -1.4414
   -3.1700    4.5485    1.5150
    1.0176    1.0850    2.2144
    1.4962    3.2926    0.7097
    2.8094    2.3538    1.4123
    3.3992    2.4471   -0.9439
    1.7258    2.2357   -1.4633
    2.4579   -0.0630   -1.6038
    3.6246    0.1356   -0.2780
    3.1592   -1.0499   -1.3621
    4.1823   -2.9390   -2.6390
    3.4668   -5.2307   -2.2681
    0.6593   -3.8774    0.6849
    0.4963   -5.6371    1.2864
    0.9021   -7.3359    0.9589
    2.1700   -6.2035    1.4764
   -0.6278    3.4084    1.8829
@<BUDE>CONF  5
   -6.2478    1.0603    1.5798
   -4.9137    1.6947    1.2678
   -4.8300    2.9842    0.6997
   -3.6006    3.5848    0.4035
   -2.4453    2.8519    0.7001
   -2.4966    1.5933    1.2574
   -3.7309    1.0008    1.5492
   -1.2248    1.1509    1.4236
   -0.4103    2.0696    0.9987
   -1.0786    3.1152    0.5485
    1.0955    1.9576    1.0078
    1.7232    3.0968    0.1833
    3.0828    2.5816   -0.3340
    2.7829    1.1319   -0.7580
    1.7458    0.7248    0.2008
    1.3569   -0.5310    0.4024
    0.4791   -0.7775    1.2279
    1.9798   -1.6320   -0.3657
    2.9796   -1.3582   -1.3066
    3.5501   -2.4196   -2.0193
    3.1355   -3.7388   -1.8026
    2.1364   -4.0182   -0.8627
    1.5694   -2.9533   -0.1522
    1.6631   -5.2730   -0.5824
    1.4654   -6.1747   -1.6746
   -6.5089    1.2578    2.6173
   -6.1842   -0.0140    1.4196
   -7.0100    1.4805    0.9271
   -5.7496    3.5106    0.4905
   -3.5175    4.5687   -0.0342
   -3.7579    0.0149    1.9893
    1.4294    2.0104    2.0420
    1.0680    3.3540   -0.6462
    1.8410    3.9815    0.8057
    3.8317    2.6118    0.4546
    3.4398    3.1795   -1.1699
    2.3845    1.0645   -1.7682
    3.6511    0.4828   -0.6657
    3.2998   -0.3403   -1.4725
    4.3229   -2.2294   -2.7494
    3.6074   -4.5211   -2.3785
    0.7999   -3.1678    0.5745
    2.4144   -6.3471   -2.1780
    1.0768   -7.1188   -1.2987
    0.7549   -5.7430   -2.3764
   -0.9617    0.2419    1.8249
@<BUDE>CONF  6
   -6.2407    1.0008    1.3254
   -4.9066    1.6352    1.0134
   -4.8229    2.9247    0.4453
   -3.5935    3.5253    0.1491
   -2.4382    2.7924    0.4457
   -2.4895    1.5338    1.0030
   -3.7238    0.9413    1.2948
   -1.2177    1.0914    1.1692
   -0.4032    2.0101    0.7443
   -1.0715    3.0557    0.2941
    1.1026    1.8981    0.7534
    1.7303    3.0373   -0.0711
    3.0899    2.5221   -0.5884
    2.7900    1.0724   -1.0124
    1.7529    0.6653   -0.0536
    1.3640   -0.5905    0.1480
    0.4862   -0.8370    0.9735
    1.9869   -1.6915   -0.6201
    2.9867   -1.4177   -1.5610
    3.5572   -2.4791   -2.2737
    3.1426   -3.7983   -2.0570
    2.1435   -4.0777   -1.1171
    1.5765   -3.0128   -0.4066
    1.6702   -5.3325   -0.8368
    1.4044   -5.6593    0.5298
   -6.5018    1.1983    2.3629
   -6.1771   -0.0735    1.1652
   -7.0029    1.4210    0.6727
   -5.7425    3.4511    0.2361
   -3.5104    4.5092   -0.2886
   -3.7508   -0.0446    1.7349
    1.4365    1.9509    1.7876
    1.0751    3.2945   -0.9006
    1.8481    3.9220    0.5513
    3.8388    2.5523    0.2002
    3.4469    3.1200   -1.4243
    2.3916    1.0050   -2.0226
    3.6582    0.4233   -0.9201
    3.3069   -0.3998   -1.7269
    4.3300   -2.2889   -3.0038
    3.6145   -4.5806   -2.6329
    0.8070   -3.2273    0.3201
    0.6440   -4.9870    0.9216
    1.0498   -6.6858    0.5941
    2.3177   -5.5534    1.1116
   -0.9546    0.1824    1.5705
