@<TRIPOS>MOLECULE
ZINC61234769
   49    52     0     0     0
SMALL
USER_CHARGES

@<TRIPOS>ATOM
      1 C1          1.7565    6.4462   -0.2205 C.3       1 <0>        -0.1123
      2 C2          1.7770    4.9393   -0.2288 C.ar      1 <0>        -0.0676
      3 C3          1.7806    4.2568   -1.4371 C.ar      1 <0>        -0.1270
      4 C4          1.7990    2.8912   -1.4660 C.ar      1 <0>        -0.0597
      5 C5          1.8149    2.1696   -0.2694 C.ar      1 <0>         0.0438
      6 C6          1.8117    2.8602    0.9543 C.ar      1 <0>         0.0549
      7 C7          1.7977    4.2484    0.9639 C.ar      1 <0>        -0.1151
      8 N1          1.8298    1.8920    1.9382 N.pl3     1 <0>        -0.5955
      9 C8          1.8431    0.6825    1.3156 C.2       1 <0>         0.2789
     10 N2          1.8344    0.8442    0.0246 N.2       1 <0>        -0.4719
     11 C9          1.8652   -0.6502    2.0187 C.3       1 <0>         0.2183
     12 C10         3.3222   -1.0612    2.3187 C.3       1 <0>        -0.1243
     13 C11         3.3117   -2.5912    2.0611 C.3       1 <0>        -0.1305
     14 C12         2.3242   -2.6997    0.8725 C.3       1 <0>         0.0988
     15 N3          1.2904   -1.6851    1.1468 N.am      1 <0>        -0.6050
     16 C13         0.0275   -1.7034    0.6767 C.2       1 <0>         0.5384
     17 O1         -0.7413   -0.8120    0.9688 O.2       1 <0>        -0.5189
     18 C14        -0.4294   -2.8314   -0.2121 C.3       1 <0>        -0.0886
     19 C15        -1.8704   -2.6157   -0.5969 C.ar      1 <0>        -0.1068
     20 C16        -2.8806   -3.1303    0.1946 C.ar      1 <0>        -0.0647
     21 C17        -4.2023   -2.9343   -0.1562 C.ar      1 <0>        -0.1512
     22 C18        -4.5156   -2.2200   -1.3035 C.ar      1 <0>         0.1282
     23 C19        -3.5002   -1.7043   -2.0958 C.ar      1 <0>        -0.2063
     24 C20        -2.1801   -1.8987   -1.7378 C.ar      1 <0>        -0.0603
     25 O2         -5.8151   -2.0263   -1.6510 O.3       1 <0>        -0.3185
     26 C21        -6.0632   -1.2815   -2.8451 C.3       1 <0>         0.0268
     27 H1          2.7791    6.8235   -0.2282 H         1 <0>         0.0722
     28 H2          1.2294    6.8073   -1.1036 H         1 <0>         0.0696
     29 H3          1.2463    6.7977    0.6763 H         1 <0>         0.0660
     30 H4          1.7684    4.8109   -2.3640 H         1 <0>         0.1292
     31 H5          1.8010    2.3701   -2.4119 H         1 <0>         0.1276
     32 H6          1.7989    4.7845    1.9015 H         1 <0>         0.1220
     33 H7          1.2964   -0.5892    2.9465 H         1 <0>         0.0955
     34 H8          4.0118   -0.5605    1.6391 H         1 <0>         0.0847
     35 H9          3.5776   -0.8466    3.3563 H         1 <0>         0.0905
     36 H10         4.3028   -2.9468    1.7793 H         1 <0>         0.0915
     37 H11         2.9372   -3.1313    2.9307 H         1 <0>         0.0820
     38 H12         2.8336   -2.4783   -0.0654 H         1 <0>         0.0764
     39 H13         1.8797   -3.6944    0.8381 H         1 <0>         0.0835
     40 H14         0.1866   -2.8581   -1.1109 H         1 <0>         0.1032
     41 H15        -0.3336   -3.7766    0.3223 H         1 <0>         0.1017
     42 H16        -2.6361   -3.6862    1.0877 H         1 <0>         0.1265
     43 H17        -4.9910   -3.3370    0.4620 H         1 <0>         0.1306
     44 H18        -3.7416   -1.1480   -2.9894 H         1 <0>         0.1277
     45 H19        -1.3894   -1.4936   -2.3518 H         1 <0>         0.1227
     46 H20        -7.1382   -1.2005   -3.0061 H         1 <0>         0.1005
     47 H21        -5.6344   -0.2842   -2.7469 H         1 <0>         0.0555
     48 H22        -5.6062   -1.7916   -3.6931 H         1 <0>         0.0558
     49 H23         1.8329    2.0456    2.8960 H         1 <0>         0.4211
@<TRIPOS>BOND
     1    1    2 1
     2    1   27 1
     3    1   28 1
     4    1   29 1
     5    2    7 ar
     6    2    3 ar
     7    3    4 ar
     8    3   30 1
     9    4    5 ar
    10    4   31 1
    11    5   10 1
    12    5    6 ar
    13    6    7 ar
    14    6    8 1
    15    7   32 1
    16    8    9 1
    17    8   49 1
    18    9   10 2
    19    9   11 1
    20   11   15 1
    21   11   12 1
    22   11   33 1
    23   12   13 1
    24   12   34 1
    25   12   35 1
    26   13   14 1
    27   13   36 1
    28   13   37 1
    29   14   15 1
    30   14   38 1
    31   14   39 1
    32   15   16 am
    33   16   17 2
    34   16   18 1
    35   18   19 1
    36   18   40 1
    37   18   41 1
    38   19   24 ar
    39   19   20 ar
    40   20   21 ar
    41   20   42 1
    42   21   22 ar
    43   21   43 1
    44   22   23 ar
    45   22   25 1
    46   23   24 ar
    47   23   44 1
    48   24   45 1
    49   25   26 1
    50   26   46 1
    51   26   47 1
    52   26   48 1
@<BUDE>CONF  1
   -6.0058    0.4437    2.4946
   -4.6740    1.0877    2.1925
   -4.5949    2.3810    1.6370
   -3.3692    2.9931    1.3493
   -2.2094    2.2653    1.6410
   -2.2568    0.9991    2.1873
   -3.4885    0.3968    2.4701
   -0.9809    0.5626    2.3518
   -0.1703    1.4928    1.9367
   -0.8440    2.5385    1.4952
    1.3362    1.3912    1.9478
    1.9575    2.5427    1.1358
    3.3203    2.0389    0.6157
    3.0310    0.5915    0.1767
    1.9972    0.1610    1.1289
    1.6083   -1.0948    1.3305
    0.7305   -1.3413    2.1560
    2.2438   -2.2181    0.5467
    1.7677   -2.1637   -0.8852
    0.6198   -2.8595   -1.2827
    0.2033   -2.7853   -2.6172
    0.8905   -2.0427   -3.5777
    2.0409   -1.3544   -3.1745
    2.4672   -1.4195   -1.8426
    0.3937   -2.0402   -4.8544
    1.3249   -2.1230   -5.9366
   -6.2894    0.6631    3.5217
   -5.9254   -0.6332    2.3622
   -6.7604    0.8377    1.8172
   -5.5177    2.9030    1.4312
   -3.2921    3.9818    0.9216
   -3.5112   -0.5936    2.9000
    1.6677    1.4364    2.9832
    1.3024    2.8049    0.3077
    2.0702    3.4221    1.7667
    4.0673    2.0664    1.4063
    3.6753    2.6475   -0.2133
    2.6347    0.5360   -0.8351
    3.9101   -0.0440    0.2602
    1.9616   -3.1720    0.9876
    3.3263   -2.1114    0.5741
    0.0643   -3.4479   -0.5675
   -0.6802   -3.3171   -2.9384
    2.6294   -0.7615   -3.8591
    3.3593   -0.8791   -1.5625
    1.8837   -3.0536   -5.8629
    0.7855   -2.0969   -6.8811
    2.0127   -1.2814   -5.8876
   -0.7128   -0.3482    2.7439
@<BUDE>CONF  2
   -6.8571    4.2627   -0.0262
   -5.7117    3.2991   -0.2239
   -5.8181    2.2062   -1.1079
   -4.7670    1.3021   -1.3027
   -3.5894    1.5288   -0.5803
   -3.4563    2.5916    0.2895
   -4.5146    3.4887    0.4767
   -2.2116    2.5401    0.8312
   -1.5894    1.5088    0.3371
   -2.3619    0.8587   -0.5132
   -0.1793    1.1016    0.6918
    0.8174    2.1973    0.2707
    1.3000    1.8406   -1.1510
    1.4975    0.3143   -1.0972
    0.4637   -0.1162   -0.1450
    0.0748   -1.3720    0.0566
   -0.8030   -1.6185    0.8821
    0.7103   -2.4953   -0.7272
    2.1207   -2.7160   -0.2352
    3.1943   -2.0286   -0.8138
    4.4894   -2.2534   -0.3319
    4.7591   -3.1429    0.7084
    3.6816   -3.8313    1.2782
    2.3816   -3.6145    0.8062
    6.0641   -3.2856    1.1005
    6.5316   -4.6012    1.4093
   -6.4643    5.2444    0.2299
   -7.4957    3.9056    0.7791
   -7.4353    4.3312   -0.9452
   -6.7464    2.0744   -1.6438
   -4.8339    0.4590   -1.9743
   -4.3961    4.3178    1.1585
   -0.1364    0.9441    1.7676
    0.3238    3.1668    0.2778
    1.6449    2.2362    0.9763
    2.2349    2.3486   -1.3782
    0.5640    2.1249   -1.9000
    1.3213   -0.1613   -2.0598
    2.4854    0.0430   -0.7309
    0.7304   -2.2338   -1.7831
    0.1308   -3.4059   -0.5895
    3.0241   -1.3348   -1.6238
    5.3274   -1.7305   -0.7688
    3.8090   -4.5392    2.0840
    1.5713   -4.1618    1.2648
    6.4405   -5.2338    0.5289
    7.5746   -4.5522    1.7151
    5.9348   -5.0168    2.2187
   -1.8339    3.2107    1.5115
