@<TRIPOS>MOLECULE
ZINC61282001
   52    53     0     0     0
SMALL
USER_CHARGES

@<TRIPOS>ATOM
      1 C1         -0.6504    8.5017    4.3700 C.3       1 <0>        -0.1391
      2 C2         -0.6293    6.9719    4.3551 C.3       1 <0>        -0.1418
      3 C3          0.0603    6.4912    3.1043 C.2       1 <0>         0.5169
      4 O1          0.4924    7.2932    2.3037 O.2       1 <0>        -0.5335
      5 N1          0.1969    5.1700    2.8754 N.am      1 <0>        -0.7285
      6 C4          0.8673    4.7027    1.6595 C.3       1 <0>         0.1288
      7 C5          0.8881    3.1960    1.6448 C.2       1 <0>         0.4630
      8 O2          0.3936    2.5760    2.5565 O.2       1 <0>        -0.4988
      9 O3          1.4559    2.5426    0.6190 O.3       1 <0>        -0.3175
     10 C6          1.4396    1.1146    0.6706 C.3       1 <0>         0.0731
     11 C7          2.6987    0.6156    1.3824 C.3       1 <0>        -0.1692
     12 C8          1.4023    0.5616   -0.7308 C.2       1 <0>         0.5202
     13 O4          1.4822    1.3112   -1.6808 O.2       1 <0>        -0.4963
     14 N2          1.2800   -0.7660   -0.9284 N.am      1 <0>        -0.6538
     15 C9          1.1513   -1.2688   -2.2209 C.ar      1 <0>         0.2101
     16 C10         1.8257   -0.6660   -3.2744 C.ar      1 <0>        -0.1321
     17 C11         1.6963   -1.1656   -4.5545 C.ar      1 <0>        -0.0675
     18 C12         0.8954   -2.2696   -4.7989 C.ar      1 <0>        -0.1401
     19 C13         0.2189   -2.8809   -3.7656 C.ar      1 <0>        -0.0656
     20 C14         0.3442   -2.3900   -2.4639 C.ar      1 <0>        -0.1718
     21 C15        -0.3723   -3.0435   -1.3522 C.2       1 <0>         0.5702
     22 O5         -0.3431   -2.5546   -0.2393 O.2       1 <0>        -0.5422
     23 N3         -1.0592   -4.1824   -1.5702 N.am      1 <0>        -0.7214
     24 C16        -1.7707   -4.8313   -0.4662 C.3       1 <0>         0.2043
     25 C17        -2.4525   -6.0768   -0.9712 C.2       1 <0>        -0.0464
     26 C18        -1.9178   -7.3108   -0.9972 C.2       1 <0>        -0.1782
     27 C19        -2.8975   -8.1703   -1.5452 C.2       1 <0>        -0.2183
     28 C20        -3.9723   -7.4101   -1.8213 C.2       1 <0>        -0.0240
     29 O6         -3.6992   -6.1440   -1.4662 O.3       1 <0>        -0.1712
     30 H1          0.3719    8.8793    4.3508 H         1 <0>         0.0628
     31 H2         -1.1889    8.8662    3.4952 H         1 <0>         0.0628
     32 H3         -1.1492    8.8493    5.2747 H         1 <0>         0.0640
     33 H4         -0.0908    6.6074    5.2299 H         1 <0>         0.0966
     34 H5         -1.6516    6.5942    4.3743 H         1 <0>         0.0966
     35 H6         -0.1487    4.5286    3.5158 H         1 <0>         0.4131
     36 H7          0.3288    5.0672    0.7848 H         1 <0>         0.1171
     37 H8          1.8896    5.0804    1.6403 H         1 <0>         0.1171
     38 H9          0.5572    0.7808    1.2165 H         1 <0>         0.1185
     39 H10         3.5811    0.9494    0.8364 H         1 <0>         0.0777
     40 H11         2.7257    1.0156    2.3960 H         1 <0>         0.0803
     41 H12         2.6863   -0.4736    1.4218 H         1 <0>         0.0842
     42 H13         1.2817   -1.3713   -0.1704 H         1 <0>         0.4245
     43 H14         2.4518    0.1948   -3.0920 H         1 <0>         0.1486
     44 H15         2.2223   -0.6929   -5.3708 H         1 <0>         0.1348
     45 H16         0.8005   -2.6526   -5.8042 H         1 <0>         0.1332
     46 H17        -0.4044   -3.7409   -3.9615 H         1 <0>         0.1296
     47 H18        -1.0825   -4.5723   -2.4581 H         1 <0>         0.4054
     48 H19        -1.0609   -5.0978    0.3168 H         1 <0>         0.1035
     49 H20        -2.5169   -4.1469   -0.0626 H         1 <0>         0.0890
     50 H21        -0.9294   -7.5911   -0.6640 H         1 <0>         0.1520
     51 H22        -2.8012   -9.2332   -1.7108 H         1 <0>         0.1526
     52 H23        -4.8992   -7.7594   -2.2518 H         1 <0>         0.2068
@<TRIPOS>BOND
     1    1    2 1
     2    1   30 1
     3    1   31 1
     4    1   32 1
     5    2    3 1
     6    2   33 1
     7    2   34 1
     8    3    4 2
     9    3    5 am
    10    5    6 1
    11    5   35 1
    12    6    7 1
    13    6   36 1
    14    6   37 1
    15    7    8 2
    16    7    9 1
    17    9   10 1
    18   10   11 1
    19   10   12 1
    20   10   38 1
    21   11   39 1
    22   11   40 1
    23   11   41 1
    24   12   13 2
    25   12   14 am
    26   14   15 1
    27   14   42 1
    28   15   20 ar
    29   15   16 ar
    30   16   17 ar
    31   16   43 1
    32   17   18 ar
    33   17   44 1
    34   18   19 ar
    35   18   45 1
    36   19   20 ar
    37   19   46 1
    38   20   21 1
    39   21   22 2
    40   21   23 am
    41   23   24 1
    42   23   47 1
    43   24   25 1
    44   24   48 1
    45   24   49 1
    46   25   29 1
    47   25   26 2
    48   26   27 1
    49   26   50 1
    50   27   28 2
    51   27   51 1
    52   28   29 1
    53   28   52 1
@<BUDE>CONF  1
   -5.6898   -0.1965   -2.0107
   -5.6794    0.8204   -0.8730
   -4.3450    0.7720   -0.1680
   -3.4764   -0.0122   -0.5467
   -4.1086    1.5779    0.8634
   -2.8096    1.5308    1.5496
   -1.7724    2.2388    0.7111
   -1.2609    3.2412    1.1128
   -1.4228    1.7389   -0.4932
   -0.4363    2.4439   -1.2513
   -0.2431    1.7569   -2.6001
    0.8714    2.4450   -0.4962
    1.4040    3.5102   -0.1888
    1.4477    1.2935   -0.1635
    2.6731    1.2929    0.5439
    3.5233    2.4049    0.5252
    4.7489    2.3411    1.1989
    5.1180    1.1766    1.8843
    4.2489    0.0801    1.9302
    3.0302    0.1341    1.2435
    2.0684   -0.9898    1.1946
    1.0200   -0.8744    0.5618
    2.3383   -2.1238    1.8350
    1.3830   -3.2400    1.7865
    1.4441   -3.8948    0.4272
    2.2420   -3.5387   -0.5887
    1.8889   -4.5056   -1.6522
    0.9545   -5.2804   -1.0945
    0.5938   -4.9778    0.2165
   -5.5417   -1.1952   -1.6050
   -6.6465   -0.1523   -2.5270
   -4.8886    0.0341   -2.7096
   -6.4713    0.5826   -0.1658
   -5.8398    1.8182   -1.2761
   -4.8211    2.2223    1.1753
   -2.8913    2.0233    2.5163
   -2.5123    0.4943    1.6941
   -0.7639    3.4693   -1.4094
    0.0724    0.7280   -2.4405
   -1.1820    1.7679   -3.1497
    0.5177    2.2859   -3.1702
    1.0104    0.4189   -0.4160
    3.2384    3.2996   -0.0083
    5.4142    3.1916    1.1804
    6.0725    1.1232    2.3867
    4.5221   -0.8009    2.4921
    3.1995   -2.2174    2.3544
    0.3776   -2.8641    1.9639
    1.6387   -3.9689    2.5526
    2.9735   -2.7464   -0.6482
    2.2969   -4.5759   -2.6496
    0.4679   -6.1037   -1.5962
@<BUDE>CONF  2
   -5.8537    0.0008   -2.5334
   -5.8433    1.0177   -1.3957
   -4.5089    0.9693   -0.6907
   -3.6403    0.1851   -1.0694
   -4.2725    1.7752    0.3407
   -2.9735    1.7281    1.0269
   -1.9363    2.4361    0.1884
   -1.4248    3.4385    0.5901
   -1.5867    1.9362   -1.0159
   -0.6002    2.6412   -1.7740
   -0.4070    1.9542   -3.1228
    0.7075    2.6423   -1.0189
    1.2401    3.7075   -0.7115
    1.2838    1.4908   -0.6862
    2.5092    1.4902    0.0212
    3.3594    2.6022    0.0025
    4.5850    2.5384    0.6762
    4.9541    1.3739    1.3616
    4.0850    0.2774    1.4075
    2.8663    0.3314    0.7208
    1.9045   -0.7925    0.6719
    0.8561   -0.6771    0.0391
    2.1744   -1.9265    1.3123
    1.2191   -3.0427    1.2638
    1.9305   -4.3283    1.6123
    1.8550   -4.9847    2.7781
    2.7351   -6.1556    2.5655
    3.1767   -6.0112    1.3131
    2.7345   -4.8862    0.6210
   -5.7056   -0.9979   -2.1277
   -6.8104    0.0450   -3.0497
   -5.0525    0.2314   -3.2323
   -6.6352    0.7799   -0.6885
   -6.0038    2.0155   -1.7988
   -4.9850    2.4196    0.6526
   -3.0552    2.2206    1.9936
   -2.6762    0.6916    1.1714
   -0.9278    3.6666   -1.9321
   -0.0915    0.9253   -2.9632
   -1.3459    1.9652   -3.6724
    0.3538    2.4832   -3.6929
    0.8465    0.6162   -0.9387
    3.0745    3.4969   -0.5310
    5.2503    3.3889    0.6577
    5.9086    1.3205    1.8640
    4.3582   -0.6036    1.9694
    3.0356   -2.0201    1.8317
    0.8015   -3.1185    0.2620
    0.4185   -2.8653    1.9786
    1.2980   -4.7447    3.6716
    2.9639   -6.9505    3.2597
    3.8501   -6.6984    0.8224
@<BUDE>CONF  3
   -0.7919    0.9478    3.7565
   -1.8092    1.3269    2.6841
   -2.3000    0.0773    1.9931
   -1.8696   -1.0238    2.3327
   -3.1983    0.1672    1.0164
   -3.7126    1.4830    0.6104
   -2.6754    2.1910   -0.2281
   -2.1639    3.1934    0.1736
   -2.3258    1.6911   -1.4324
   -1.3393    2.3961   -2.1905
   -1.1461    1.7091   -3.5393
   -0.0316    2.3972   -1.4354
    0.5010    3.4624   -1.1280
    0.5447    1.2457   -1.1027
    1.7701    1.2451   -0.3953
    2.6203    2.3571   -0.4140
    3.8459    2.2933    0.2597
    4.2150    1.1288    0.9451
    3.3459    0.0323    0.9910
    2.1272    0.0863    0.3043
    1.1654   -1.0376    0.2554
    0.1170   -0.9222   -0.3774
    1.4353   -2.1716    0.8958
    0.4800   -3.2878    0.8473
    0.5411   -3.9426   -0.5120
    1.3390   -3.5865   -1.5279
    0.9859   -4.5534   -2.5914
    0.0515   -5.3282   -2.0337
   -0.3092   -5.0256   -0.7227
    0.0546    0.4467    3.2916
   -0.4481    1.8470    4.2634
   -1.2581    0.2798    4.4777
   -1.3402    1.9837    1.9544
   -2.6504    1.8392    3.1464
   -3.5273   -0.6680    0.5534
   -4.6223    1.3536    0.0279
   -3.9296    2.0772    1.4956
   -1.6669    3.4215   -2.3486
   -0.8306    0.6802   -3.3797
   -2.0850    1.7201   -4.0889
   -0.3853    2.2381   -4.1094
    0.1074    0.3711   -1.3552
    2.3354    3.2518   -0.9475
    4.5112    3.1438    0.2412
    5.1695    1.0754    1.4475
    3.6191   -0.8487    1.5529
    2.2965   -2.2652    1.4152
   -0.5254   -2.9119    1.0247
    0.7357   -4.0167    1.6134
    2.0705   -2.7942   -1.5874
    1.3939   -4.6237   -3.5888
   -0.4351   -6.1515   -2.5354
@<BUDE>CONF  4
   -0.9815   -2.8231   -3.6235
   -0.7033   -1.9806   -2.3819
   -0.9516   -0.5247   -2.6966
   -0.0361    0.2910   -2.6003
   -2.1611   -0.1242   -3.0781
   -2.4028    1.2930   -3.3845
   -2.5097    2.0742   -2.0967
   -3.5432    2.5930   -1.7957
   -1.4370    2.1866   -1.2849
   -1.5861    2.9362   -0.0763
   -1.9798    4.3718   -0.4121
   -0.2784    2.9373    0.6788
    0.2542    4.0025    0.9862
    0.2979    1.7858    1.0115
    1.5233    1.7852    1.7189
    2.3735    2.8972    1.7002
    3.5991    2.8334    2.3739
    3.9682    1.6689    3.0593
    3.0991    0.5724    3.1052
    1.8804    0.6264    2.4185
    0.9186   -0.4975    2.3696
   -0.1298   -0.3821    1.7368
    1.1885   -1.6315    3.0100
    0.2332   -2.7477    2.9615
    0.2943   -3.4025    1.6022
    1.0922   -3.0464    0.5863
    0.7391   -4.0133   -0.4772
   -0.1953   -4.7881    0.0805
   -0.5560   -4.4855    1.3915
   -0.3132   -2.5171   -4.4257
   -0.8154   -3.8733   -3.3930
   -2.0137   -2.6783   -3.9354
    0.3326   -2.1135   -2.0772
   -1.3625   -2.2941   -1.5750
   -2.9137   -0.7932   -3.1575
   -1.5776    1.6825   -3.9768
   -3.3301    1.3905   -3.9451
   -2.3594    2.4820    0.5398
   -1.2117    4.8207   -1.0384
   -2.9285    4.3718   -0.9444
   -2.0791    4.9445    0.5075
   -0.1394    0.9112    0.7590
    2.0886    3.7919    1.1667
    4.2644    3.6839    2.3554
    4.9227    1.6155    3.5617
    3.3723   -0.3086    3.6671
    2.0497   -1.7251    3.5294
   -0.7722   -2.3718    3.1389
    0.4889   -3.4766    3.7276
    1.8237   -2.2541    0.5268
    1.1471   -4.0836   -1.4746
   -0.6819   -5.6114   -0.4212
@<BUDE>CONF  5
   -1.4886    3.8254   -5.9426
   -0.8086    2.6088   -5.3214
   -1.7739    1.9141   -4.3909
   -2.9108    2.3582   -4.2395
   -1.3944    0.8214   -3.7345
   -2.3340    0.1452   -2.8288
   -2.4409    0.9264   -1.5410
   -3.4744    1.4452   -1.2400
   -1.3682    1.0388   -0.7292
   -1.5173    1.7884    0.4794
   -1.9110    3.2240    0.1436
   -0.2096    1.7895    1.2345
    0.3230    2.8547    1.5419
    0.3667    0.6380    1.5672
    1.5921    0.6374    2.2746
    2.4423    1.7494    2.2559
    3.6679    1.6856    2.9296
    4.0370    0.5211    3.6150
    3.1679   -0.5754    3.6609
    1.9492   -0.5214    2.9742
    0.9874   -1.6453    2.9253
   -0.0610   -1.5299    2.2925
    1.2573   -2.7793    3.5657
    0.3020   -3.8955    3.5172
    0.3631   -4.5503    2.1579
    1.1610   -4.1942    1.1420
    0.8079   -5.1611    0.0785
   -0.1265   -5.9359    0.6362
   -0.4872   -5.6333    1.9472
   -1.7800    4.5183   -5.1559
   -0.7975    4.3183   -6.6231
   -2.3723    3.5056   -6.4907
    0.0675    2.9288   -4.7611
   -0.5055    1.9209   -6.1080
   -0.4609    0.4558   -3.8580
   -3.3134    0.0865   -3.2989
   -1.9734   -0.8586   -2.6143
   -2.2906    1.3342    1.0955
   -1.1429    3.6729   -0.4827
   -2.8597    3.2240   -0.3887
   -2.0103    3.7967    1.0632
   -0.0706   -0.2366    1.3147
    2.1574    2.6441    1.7224
    4.3332    2.5361    2.9111
    4.9915    0.4677    4.1174
    3.4411   -1.4564    4.2228
    2.1185   -2.8729    4.0851
   -0.7034   -3.5196    3.6946
    0.5577   -4.6244    4.2833
    1.8925   -3.4019    1.0825
    1.2159   -5.2314   -0.9189
   -0.6131   -6.7592    0.1345
@<BUDE>CONF  6
   -1.1827   -2.6986   -2.0840
   -0.2848   -2.2689   -3.2406
   -0.5331   -0.8130   -3.5553
    0.3824    0.0027   -3.4590
   -1.7426   -0.4125   -3.9368
   -1.9843    1.0047   -4.2432
   -2.0912    1.7859   -2.9554
   -3.1247    2.3047   -2.6544
   -1.0185    1.8983   -2.1436
   -1.1676    2.6479   -0.9350
   -1.5613    4.0835   -1.2708
    0.1401    2.6490   -0.1799
    0.6727    3.7142    0.1275
    0.7164    1.4975    0.1528
    1.9418    1.4969    0.8602
    2.7920    2.6089    0.8415
    4.0176    2.5451    1.5152
    4.3867    1.3806    2.2006
    3.5176    0.2841    2.2465
    2.2989    0.3381    1.5598
    1.3371   -0.7858    1.5109
    0.2887   -0.6704    0.8781
    1.6070   -1.9198    2.1513
    0.6517   -3.0360    2.1028
   -0.5332   -2.7220    2.9844
   -0.7685   -3.2243    4.2042
   -2.0432   -2.5820    4.5954
   -2.3486   -1.7992    3.5569
   -1.4641   -1.8163    2.4810
   -2.2252   -2.5726   -2.3688
   -0.9943   -3.7440   -1.8485
   -0.9678   -2.0851   -1.2116
   -0.5086   -2.8722   -4.1179
    0.7578   -2.4062   -2.9615
   -2.4952   -1.0815   -4.0162
   -1.1591    1.3942   -4.8355
   -2.9116    1.1022   -4.8038
   -1.9409    2.1937   -0.3189
   -0.7932    4.5324   -1.8971
   -2.5100    4.0835   -1.8031
   -1.6606    4.6562   -0.3512
    0.2791    0.6229   -0.0997
    2.5071    3.5036    0.3080
    4.6829    3.3956    1.4967
    5.3412    1.3272    2.7030
    3.7908   -0.5969    2.8084
    2.4682   -2.0134    2.6707
    1.1371   -3.9435    2.4559
    0.3145   -3.1796    1.0785
   -0.1897   -3.9264    4.7860
   -2.5982   -2.7093    5.5130
   -3.2286   -1.1754    3.5033
@<BUDE>CONF  7
   -4.8404   -1.5814   -2.1217
   -3.8863   -0.4966   -2.6133
   -2.5033   -1.0802   -2.7768
   -2.3010   -2.2661   -2.5204
   -1.5031   -0.3115   -3.1983
   -1.7448    1.1057   -3.5047
   -1.8517    1.8869   -2.2169
   -2.8852    2.4057   -1.9159
   -0.7790    1.9993   -1.4051
   -0.9281    2.7489   -0.1965
   -1.3218    4.1845   -0.5323
    0.3796    2.7500    0.5586
    0.9122    3.8152    0.8660
    0.9559    1.5985    0.8913
    2.1813    1.5979    1.5987
    3.0315    2.7099    1.5800
    4.2571    2.6461    2.2537
    4.6262    1.4816    2.9391
    3.7571    0.3851    2.9850
    2.5384    0.4391    2.2983
    1.5766   -0.6848    2.2494
    0.5282   -0.5694    1.6166
    1.8465   -1.8188    2.8898
    0.8912   -2.9350    2.8413
    0.9523   -3.5898    1.4820
    1.7502   -3.2337    0.4661
    1.3971   -4.2006   -0.5974
    0.4627   -4.9754   -0.0397
    0.1020   -4.6728    1.2713
   -4.4991   -1.9542   -1.1582
   -5.8397   -1.1641   -2.0166
   -4.8612   -2.3979   -2.8404
   -3.8537    0.3142   -1.8886
   -4.2335   -0.1143   -3.5710
   -0.5776   -0.7008   -3.3080
   -0.9196    1.4952   -4.0970
   -2.6721    1.2032   -4.0653
   -1.7014    2.2947    0.4196
   -0.5537    4.6334   -1.1586
   -2.2705    4.1845   -1.0646
   -1.4211    4.7572    0.3873
    0.5186    0.7239    0.6388
    2.7466    3.6046    1.0465
    4.9224    3.4966    2.2352
    5.5807    1.4282    3.4415
    4.0303   -0.4959    3.5469
    2.7077   -1.9124    3.4092
   -0.1142   -2.5591    3.0187
    1.1469   -3.6639    3.6074
    2.4817   -2.4414    0.4066
    1.8051   -4.2709   -1.5948
   -0.0239   -5.7987   -0.5414
@<BUDE>CONF  8
   -3.9153    3.4503    2.5794
   -5.2181    2.9882    1.9330
   -4.9089    2.2435    0.6562
   -5.3379    2.6597   -0.4187
   -4.1723    1.1367    0.6942
   -3.8714    0.4118   -0.5487
   -2.7947    1.1466   -1.3108
   -3.0408    1.6347   -2.3734
   -1.5532    1.2524   -0.7913
   -0.5667    1.9574   -1.5494
   -0.3735    1.2704   -2.8982
    0.7410    1.9585   -0.7943
    1.2736    3.0237   -0.4869
    1.3173    0.8070   -0.4616
    2.5427    0.8064    0.2458
    2.9789    1.9385    0.9442
    4.2215    1.9088    1.5885
    5.0176    0.7576    1.5342
    4.5615   -0.3841    0.8647
    3.3272   -0.3523    0.2051
    2.7829   -1.4917   -0.5671
    1.6943   -1.3883   -1.1304
    3.4712   -2.6266   -0.6515
    2.9307   -3.7582   -1.4185
    1.8059   -4.3999   -0.6419
    1.3478   -4.0116    0.5560
    0.2607   -4.9773    0.8325
    0.2425   -5.7682   -0.2438
    1.1822   -5.4951   -1.2351
   -3.3911    4.1189    1.8997
   -4.1373    3.9753    3.5061
   -3.2902    2.5856    2.7924
   -5.8381    3.8530    1.7066
   -5.7492    2.3293    2.6168
   -3.8196    0.7940    1.5764
   -3.5251   -0.5914   -0.3094
   -4.7694    0.3499   -1.1598
   -0.8943    2.9828   -1.7075
   -0.0580    0.2415   -2.7386
   -1.3124    1.2814   -3.4478
    0.3873    1.7994   -3.4683
    0.8800   -0.0676   -0.7141
    2.3652    2.8265    0.9802
    4.5688    2.7820    2.1208
    5.9844    0.7443    2.0155
    5.1626   -1.2813    0.8586
    4.3650   -2.7104   -0.1886
    3.7182   -4.4893   -1.5886
    2.5543   -3.4006   -2.3745
    1.6705   -3.1984    1.1891
   -0.3784   -5.0287    1.7016
   -0.4391   -6.5947   -0.3800
@<BUDE>CONF  9
    0.6681    2.8210   -5.2874
    0.9211    1.3166   -5.3241
   -0.0442    0.6220   -4.3936
    0.3803   -0.0353   -3.4445
   -1.3543    0.7209   -4.6004
   -2.2939    0.0447   -3.6947
   -2.4008    0.8259   -2.4069
   -3.4343    1.3447   -2.1059
   -1.3281    0.9383   -1.5951
   -1.4772    1.6879   -0.3865
   -1.8709    3.1235   -0.7223
   -0.1695    1.6890    0.3686
    0.3631    2.7542    0.6760
    0.4068    0.5375    0.7013
    1.6322    0.5369    1.4087
    2.4824    1.6489    1.3900
    3.7080    1.5851    2.0637
    4.0771    0.4206    2.7491
    3.2080   -0.6759    2.7950
    1.9893   -0.6219    2.1083
    1.0275   -1.7458    2.0594
   -0.0209   -1.6304    1.4266
    1.2974   -2.8798    2.6998
    0.3421   -3.9960    2.6513
   -0.8428   -3.6820    3.5329
   -1.0229   -2.5642    4.2497
   -2.3296   -2.7899    4.9072
   -2.7154   -3.9907    4.4673
   -1.8464   -4.6458    3.5978
    0.8261    3.1902   -4.2762
    1.3548    3.3203   -5.9678
   -0.3565    3.0233   -5.5920
    1.9413    1.1119   -5.0061
    0.7756    0.9484   -6.3375
   -1.7040    1.2603   -5.3795
   -3.2733   -0.0140   -4.1648
   -1.9333   -0.9591   -3.4802
   -2.2505    1.2337    0.2296
   -1.1028    3.5724   -1.3486
   -2.8196    3.1235   -1.2546
   -1.9702    3.6962    0.1973
   -0.0305   -0.3371    0.4488
    2.1975    2.5436    0.8565
    4.3733    2.4356    2.0452
    5.0316    0.3672    3.2515
    3.4812   -1.5569    3.3569
    2.1586   -2.9734    3.2192
    0.8275   -4.9035    3.0044
    0.0049   -4.1396    1.6270
   -0.3896   -1.6946    4.3450
   -2.8566   -2.1327    5.5829
   -3.6386   -4.4745    4.7500
@<BUDE>CONF  10
   -0.7582    0.9505    3.7567
   -1.7755    1.3296    2.6843
   -2.2663    0.0800    1.9933
   -1.8359   -1.0211    2.3329
   -3.1646    0.1699    1.0166
   -3.6789    1.4857    0.6106
   -2.6417    2.1937   -0.2279
   -2.1302    3.1961    0.1738
   -2.2921    1.6938   -1.4322
   -1.3056    2.3988   -2.1903
   -1.1124    1.7118   -3.5391
    0.0021    2.3999   -1.4352
    0.5347    3.4651   -1.1278
    0.5784    1.2484   -1.1025
    1.8038    1.2478   -0.3951
    2.6540    2.3598   -0.4138
    3.8796    2.2960    0.2599
    4.2487    1.1315    0.9453
    3.3796    0.0350    0.9912
    2.1609    0.0890    0.3045
    1.1991   -1.0349    0.2556
    0.1507   -0.9195   -0.3772
    1.4690   -2.1689    0.8960
    0.5137   -3.2851    0.8475
    0.5748   -3.9399   -0.5118
   -0.3121   -3.7884   -1.5048
    0.2362   -4.6423   -2.5823
    1.3575   -5.1483   -2.0617
    1.6635   -4.7740   -0.7553
    0.0883    0.4494    3.2918
   -0.4144    1.8497    4.2636
   -1.2244    0.2825    4.4779
   -1.3065    1.9864    1.9546
   -2.6167    1.8419    3.1466
   -3.4936   -0.6653    0.5536
   -4.5886    1.3563    0.0281
   -3.8959    2.0799    1.4958
   -1.6332    3.4242   -2.3484
   -0.7969    0.6829   -3.3795
   -2.0513    1.7228   -4.0887
   -0.3516    2.2408   -4.1092
    0.1411    0.3738   -1.3550
    2.3691    3.2545   -0.9473
    4.5449    3.1465    0.2414
    5.2032    1.0781    1.4477
    3.6528   -0.8460    1.5531
    2.3302   -2.2625    1.4154
   -0.4917   -2.9092    1.0249
    0.7694   -4.0140    1.6136
   -1.2144   -3.1962   -1.5413
   -0.1710   -4.8134   -3.5677
    2.0195   -5.8238   -2.5830
@<BUDE>CONF  11
   -5.9063    4.1530    1.6874
   -5.0523    2.9296    2.0073
   -4.7431    2.1849    0.7305
   -5.1721    2.6011   -0.3444
   -4.0065    1.0781    0.7685
   -3.7056    0.3532   -0.4744
   -2.6289    1.0880   -1.2365
   -2.8750    1.5761   -2.2991
   -1.3874    1.1938   -0.7170
   -0.4009    1.8988   -1.4751
   -0.2077    1.2118   -2.8239
    0.9068    1.8999   -0.7200
    1.4394    2.9651   -0.4126
    1.4831    0.7484   -0.3873
    2.7085    0.7478    0.3201
    3.1447    1.8799    1.0185
    4.3873    1.8502    1.6628
    5.1834    0.6990    1.6085
    4.7273   -0.4427    0.9390
    3.4930   -0.4109    0.2794
    2.9487   -1.5503   -0.4928
    1.8601   -1.4469   -1.0561
    3.6370   -2.6852   -0.5772
    3.0965   -3.8168   -1.3442
    1.9717   -4.4585   -0.5676
    1.5136   -4.0702    0.6303
    0.4265   -5.0359    0.9068
    0.4083   -5.8268   -0.1695
    1.3480   -5.5537   -1.1608
   -6.8408    3.8330    1.2311
   -6.1179    4.6969    2.6056
   -5.3682    4.7999    0.9977
   -5.5951    2.2749    2.6859
   -4.1228    3.2476    2.4750
   -3.6538    0.7354    1.6507
   -3.3593   -0.6500   -0.2351
   -4.6036    0.2913   -1.0855
   -0.7285    2.9242   -1.6332
    0.1078    0.1829   -2.6643
   -1.1466    1.2228   -3.3735
    0.5531    1.7408   -3.3940
    1.0458   -0.1262   -0.6398
    2.5310    2.7679    1.0545
    4.7346    2.7234    2.1951
    6.1502    0.6857    2.0898
    5.3284   -1.3399    0.9329
    4.5308   -2.7690   -0.1143
    3.8840   -4.5479   -1.5143
    2.7201   -3.4592   -2.3002
    1.8363   -3.2570    1.2634
   -0.2126   -5.0873    1.7759
   -0.2733   -6.6533   -0.3057
@<BUDE>CONF  12
   -0.1109    1.5607   -7.0715
   -0.5216    2.5196   -5.9578
   -1.4869    1.8249   -5.0273
   -2.6238    2.2690   -4.8759
   -1.1074    0.7322   -4.3709
   -2.0470    0.0560   -3.4652
   -2.1539    0.8372   -2.1774
   -3.1874    1.3560   -1.8764
   -1.0812    0.9496   -1.3656
   -1.2303    1.6992   -0.1570
   -1.6240    3.1348   -0.4928
    0.0774    1.7003    0.5981
    0.6100    2.7655    0.9055
    0.6537    0.5488    0.9308
    1.8791    0.5482    1.6382
    2.7293    1.6602    1.6195
    3.9549    1.5964    2.2932
    4.3240    0.4319    2.9786
    3.4549   -0.6646    3.0245
    2.2362   -0.6106    2.3378
    1.2744   -1.7345    2.2889
    0.2260   -1.6191    1.6561
    1.5443   -2.8685    2.9293
    0.5890   -3.9847    2.8808
   -0.5959   -3.6707    3.7624
   -0.8312   -4.1730    4.9822
   -2.1059   -3.5307    5.3734
   -2.4113   -2.7479    4.3349
   -1.5268   -2.7650    3.2590
   -0.9920    1.2630   -7.6362
    0.5949    2.0568   -7.7344
    0.3567    0.6798   -6.6367
   -1.0020    3.3946   -6.3904
    0.3605    2.8277   -5.4002
   -0.1739    0.3666   -4.4944
   -3.0264   -0.0027   -3.9353
   -1.6864   -0.9478   -3.2507
   -2.0036    1.2450    0.4591
   -0.8559    3.5837   -1.1191
   -2.5727    3.1348   -1.0251
   -1.7233    3.7075    0.4268
    0.2164   -0.3258    0.6783
    2.4444    2.5549    1.0860
    4.6202    2.4469    2.2747
    5.2785    0.3785    3.4810
    3.7281   -1.5456    3.5864
    2.4055   -2.9621    3.4487
    1.0744   -4.8922    3.2339
    0.2518   -4.1283    1.8565
   -0.2524   -4.8751    5.5640
   -2.6609   -3.6580    6.2910
   -3.2913   -2.1241    4.2813
@<BUDE>CONF  13
   -4.8939   -1.4725   -2.8468
   -3.9398   -0.3877   -3.3384
   -2.5568   -0.9713   -3.5019
   -2.3545   -2.1572   -3.2455
   -1.5566   -0.2026   -3.9234
   -1.7983    1.2146   -4.2298
   -1.9052    1.9958   -2.9420
   -2.9388    2.5146   -2.6410
   -0.8325    2.1082   -2.1302
   -0.9816    2.8578   -0.9216
   -1.3753    4.2934   -1.2574
    0.3261    2.8589   -0.1665
    0.8587    3.9241    0.1409
    0.9024    1.7074    0.1662
    2.1278    1.7068    0.8736
    2.9780    2.8188    0.8549
    4.2036    2.7550    1.5286
    4.5726    1.5905    2.2140
    3.7036    0.4940    2.2599
    2.4849    0.5480    1.5732
    1.5231   -0.5759    1.5243
    0.4747   -0.4605    0.8915
    1.7930   -1.7099    2.1647
    0.8377   -2.8261    2.1162
    1.1010   -3.7632    3.2705
    1.7266   -4.9464    3.2039
    1.7053   -5.4207    4.6057
    1.0860   -4.4435    5.2735
    0.6566   -3.3504    4.5245
   -4.5526   -1.8453   -1.8833
   -5.8932   -1.0552   -2.7417
   -4.9148   -2.2890   -3.5655
   -3.9072    0.4231   -2.6137
   -4.2871   -0.0054   -4.2961
   -0.6311   -0.5919   -4.0331
   -0.9731    1.6041   -4.8221
   -2.7257    1.3121   -4.7904
   -1.7549    2.4036   -0.3055
   -0.6072    4.7423   -1.8837
   -2.3240    4.2934   -1.7897
   -1.4746    4.8661   -0.3378
    0.4651    0.8328   -0.0863
    2.6931    3.7135    0.3214
    4.8689    3.6055    1.5101
    5.5272    1.5371    2.7164
    3.9768   -0.3870    2.8218
    2.6542   -1.8035    2.6841
    0.9562   -3.3635    1.1776
   -0.1762   -2.4382    2.1871
    2.1530   -5.4558    2.3524
    2.1049   -6.3422    5.0024
    0.8960   -4.4587    6.3365
@<BUDE>CONF  14
   -1.1828   -2.7305   -2.0729
   -0.2849   -2.3008   -3.2295
   -0.5332   -0.8449   -3.5442
    0.3823   -0.0292   -3.4479
   -1.7427   -0.4444   -3.9257
   -1.9844    0.9728   -4.2321
   -2.0913    1.7540   -2.9443
   -3.1248    2.2728   -2.6433
   -1.0186    1.8664   -2.1325
   -1.1677    2.6160   -0.9239
   -1.5614    4.0516   -1.2597
    0.1400    2.6171   -0.1688
    0.6726    3.6823    0.1386
    0.7163    1.4656    0.1639
    1.9417    1.4650    0.8713
    2.7919    2.5770    0.8526
    4.0175    2.5132    1.5263
    4.3866    1.3487    2.2117
    3.5175    0.2522    2.2576
    2.2988    0.3062    1.5709
    1.3370   -0.8177    1.5220
    0.2886   -0.7023    0.8892
    1.6069   -1.9517    2.1624
    0.6516   -3.0679    2.1139
   -0.5333   -2.7539    2.9955
   -0.7134   -1.6361    3.7123
   -2.0201   -1.8618    4.3698
   -2.4059   -3.0626    3.9299
   -1.5369   -3.7177    3.0604
   -2.2253   -2.6045   -2.3577
   -0.9944   -3.7759   -1.8374
   -0.9679   -2.1170   -1.2005
   -0.5087   -2.9041   -4.1068
    0.7577   -2.4381   -2.9504
   -2.4953   -1.1134   -4.0051
   -1.1592    1.3623   -4.8244
   -2.9117    1.0703   -4.7927
   -1.9410    2.1618   -0.3078
   -0.7933    4.5005   -1.8860
   -2.5101    4.0516   -1.7920
   -1.6607    4.6243   -0.3401
    0.2790    0.5910   -0.0886
    2.5070    3.4717    0.3191
    4.6828    3.3637    1.5078
    5.3411    1.2953    2.7141
    3.7907   -0.6288    2.8195
    2.4681   -2.0453    2.6818
    1.1370   -3.9754    2.4670
    0.3144   -3.2115    1.0896
   -0.0801   -0.7665    3.8076
   -2.5471   -1.2046    5.0455
   -3.3291   -3.5464    4.2126
@<BUDE>CONF  15
   -6.0520    3.9965   -0.0527
   -5.2444    2.7231   -0.2870
   -4.7178    2.2121    1.0327
   -4.9696    2.8187    2.0727
   -3.9812    1.1053    1.0707
   -3.6803    0.3804   -0.1722
   -2.6036    1.1152   -0.9343
   -2.8497    1.6033   -1.9969
   -1.3621    1.2210   -0.4148
   -0.3756    1.9260   -1.1729
   -0.1824    1.2390   -2.5217
    0.9321    1.9271   -0.4178
    1.4647    2.9923   -0.1104
    1.5084    0.7756   -0.0851
    2.7338    0.7750    0.6223
    3.1700    1.9071    1.3207
    4.4126    1.8774    1.9650
    5.2087    0.7262    1.9107
    4.7526   -0.4155    1.2412
    3.5183   -0.3837    0.5816
    2.9740   -1.5231   -0.1906
    1.8854   -1.4197   -0.7539
    3.6623   -2.6580   -0.2750
    3.1218   -3.7896   -1.0420
    1.9970   -4.4313   -0.2654
    1.5389   -4.0430    0.9325
    0.4518   -5.0087    1.2090
    0.4336   -5.7996    0.1327
    1.3733   -5.5265   -0.8586
   -5.4102    4.7562    0.3886
   -6.4425    4.3573   -1.0019
   -6.8780    3.7822    0.6222
   -4.4097    2.9392   -0.9506
   -5.8821    1.9667   -0.7397
   -3.6285    0.7626    1.9529
   -3.3340   -0.6228    0.0671
   -4.5783    0.3185   -0.7833
   -0.7032    2.9514   -1.3310
    0.1331    0.2101   -2.3621
   -1.1213    1.2500   -3.0713
    0.5784    1.7680   -3.0918
    1.0711   -0.0990   -0.3376
    2.5563    2.7951    1.3567
    4.7599    2.7506    2.4973
    6.1755    0.7129    2.3920
    5.3537   -1.3127    1.2351
    4.5561   -2.7418    0.1879
    3.9093   -4.5207   -1.2121
    2.7454   -3.4320   -1.9980
    1.8616   -3.2298    1.5656
   -0.1873   -5.0601    2.0781
   -0.2480   -6.6261   -0.0035
@<BUDE>CONF  16
   -1.4549    3.8282   -5.9424
   -0.7749    2.6116   -5.3212
   -1.7402    1.9169   -4.3907
   -2.8771    2.3610   -4.2393
   -1.3607    0.8242   -3.7343
   -2.3003    0.1480   -2.8286
   -2.4072    0.9292   -1.5408
   -3.4407    1.4480   -1.2398
   -1.3345    1.0416   -0.7290
   -1.4836    1.7912    0.4796
   -1.8773    3.2268    0.1438
   -0.1759    1.7923    1.2347
    0.3567    2.8575    1.5421
    0.4004    0.6408    1.5674
    1.6258    0.6402    2.2748
    2.4760    1.7522    2.2561
    3.7016    1.6884    2.9298
    4.0707    0.5239    3.6152
    3.2016   -0.5726    3.6611
    1.9829   -0.5186    2.9744
    1.0211   -1.6425    2.9255
   -0.0273   -1.5271    2.2927
    1.2910   -2.7765    3.5659
    0.3357   -3.8927    3.5174
    0.3968   -4.5475    2.1581
   -0.4901   -4.3960    1.1651
    0.0582   -5.2499    0.0876
    1.1795   -5.7559    0.6082
    1.4855   -5.3816    1.9146
   -1.7463    4.5211   -5.1557
   -0.7638    4.3211   -6.6229
   -2.3386    3.5084   -6.4905
    0.1012    2.9316   -4.7609
   -0.4718    1.9237   -6.1078
   -0.4272    0.4586   -3.8578
   -3.2797    0.0893   -3.2987
   -1.9397   -0.8558   -2.6141
   -2.2569    1.3370    1.0957
   -1.1092    3.6757   -0.4825
   -2.8260    3.2268   -0.3885
   -1.9766    3.7995    1.0634
   -0.0369   -0.2338    1.3149
    2.1911    2.6469    1.7226
    4.3669    2.5389    2.9113
    5.0252    0.4705    4.1176
    3.4748   -1.4536    4.2230
    2.1522   -2.8701    4.0853
   -0.6697   -3.5168    3.6948
    0.5914   -4.6216    4.2835
   -1.3924   -3.8038    1.1286
   -0.3490   -5.4210   -0.8978
    1.8415   -6.4314    0.0869
@<BUDE>CONF  17
   -4.3093   -1.4408   -3.0417
   -4.2365   -0.3214   -2.0072
   -3.6978   -0.8719   -0.7084
   -3.3981   -2.0616   -0.6210
   -3.5474   -0.0698    0.3419
   -3.9057    1.3519    0.2374
   -2.8290    2.0867   -0.5247
   -3.0751    2.5748   -1.5873
   -1.5875    2.1925   -0.0052
   -0.6010    2.8975   -0.7633
   -0.4078    2.2105   -2.1121
    0.7067    2.8986   -0.0082
    1.2393    3.9638    0.2992
    1.2830    1.7471    0.3245
    2.5084    1.7465    1.0319
    3.3586    2.8585    1.0132
    4.5842    2.7947    1.6869
    4.9533    1.6302    2.3723
    4.0842    0.5337    2.4182
    2.8655    0.5877    1.7315
    1.9037   -0.5362    1.6826
    0.8553   -0.4208    1.0498
    2.1736   -1.6702    2.3230
    1.2183   -2.7864    2.2745
    1.2794   -3.4412    0.9152
    2.0773   -3.0851   -0.1007
    1.7242   -4.0520   -1.1642
    0.7898   -4.8268   -0.6065
    0.4291   -4.5242    0.7045
   -4.9790   -2.2206   -2.6849
   -4.6849   -1.0413   -3.9815
   -3.3160   -1.8572   -3.1950
   -5.2316    0.0864   -1.8425
   -3.5767    0.4648   -2.3685
   -3.1872   -0.4370    1.2111
   -4.8529    1.4502   -0.2887
   -3.9982    1.7775    1.2344
   -0.9286    3.9229   -0.9214
   -0.0923    1.1816   -1.9525
   -1.3467    2.2215   -2.6617
    0.3530    2.7395   -2.6822
    0.8457    0.8725    0.0720
    3.0737    3.7532    0.4797
    5.2495    3.6452    1.6684
    5.9078    1.5768    2.8747
    4.3574   -0.3473    2.9801
    3.0348   -1.7638    2.8424
    0.2129   -2.4105    2.4519
    1.4740   -3.5153    3.0406
    2.8088   -2.2928   -0.1602
    2.1322   -4.1223   -2.1616
    0.3032   -5.6501   -1.1082
@<BUDE>CONF  18
   -3.8141    3.4323    2.4964
   -3.7488    1.9352    2.7849
   -3.4397    1.1906    1.5081
   -2.4186    0.5100    1.4240
   -4.2720    1.2707    0.4739
   -3.9711    0.5458   -0.7690
   -2.8944    1.2806   -1.5311
   -3.1405    1.7687   -2.5937
   -1.6529    1.3864   -1.0116
   -0.6664    2.0914   -1.7697
   -0.4732    1.4044   -3.1185
    0.6413    2.0925   -1.0146
    1.1739    3.1577   -0.7072
    1.2176    0.9410   -0.6819
    2.4430    0.9404    0.0255
    3.2932    2.0524    0.0068
    4.5188    1.9886    0.6805
    4.8879    0.8241    1.3659
    4.0188   -0.2724    1.4118
    2.8001   -0.2184    0.7251
    1.8383   -1.3423    0.6762
    0.7899   -1.2269    0.0434
    2.1082   -2.4763    1.3166
    1.1529   -3.5925    1.2681
    1.2140   -4.2473   -0.0912
    2.0119   -3.8912   -1.1071
    1.6588   -4.8581   -2.1706
    0.7244   -5.6329   -1.6129
    0.3637   -5.3303   -0.3019
   -4.6043    3.6277    1.7744
   -4.0237    3.9699    3.4188
   -2.8609    3.7647    2.0906
   -4.7061    1.5988    3.1775
   -2.9673    1.7400    3.5162
   -5.1108    1.8293    0.5418
   -3.6248   -0.4574   -0.5297
   -4.8691    0.4839   -1.3801
   -0.9940    3.1168   -1.9278
   -0.1577    0.3755   -2.9589
   -1.4121    1.4154   -3.6681
    0.2876    1.9334   -3.6886
    0.7803    0.0664   -0.9344
    3.0083    2.9471   -0.5267
    5.1841    2.8391    0.6620
    5.8424    0.7707    1.8683
    4.2920   -1.1534    1.9737
    2.9694   -2.5699    1.8360
    0.1475   -3.2166    1.4455
    1.4086   -4.3214    2.0342
    2.7434   -3.0989   -1.1666
    2.0668   -4.9284   -3.1680
    0.2378   -6.4562   -2.1146
@<BUDE>CONF  19
   -4.6853   -0.4046   -3.7708
   -3.6753    0.5731   -4.3645
   -2.3985    0.5270   -3.5596
   -2.3075   -0.2266   -2.5918
   -1.3716    1.3019   -3.8973
   -0.1287    1.2570   -3.1138
   -0.3220    2.0132   -1.8212
    0.3011    3.0114   -1.6131
   -1.1996    1.5615   -0.9002
   -1.3487    2.3111    0.3084
   -1.7424    3.7467   -0.0274
   -0.0410    2.3122    1.0635
    0.4916    3.3774    1.3709
    0.5353    1.1607    1.3962
    1.7607    1.1601    2.1036
    2.1969    2.2922    2.8020
    3.4395    2.2625    3.4463
    4.2356    1.1113    3.3920
    3.7795   -0.0304    2.7225
    2.5452    0.0014    2.0629
    2.0009   -1.1380    1.2907
    0.9123   -1.0346    0.7274
    2.6892   -2.2729    1.2063
    2.1487   -3.4045    0.4393
    1.0239   -4.0462    1.2159
    0.5658   -3.6579    2.4138
   -0.5213   -4.6236    2.6903
   -0.5395   -5.4145    1.6140
    0.4002   -5.1414    0.6227
   -4.9055   -0.1189   -2.7442
   -5.6005   -0.3810   -4.3586
   -4.2689   -1.4095   -3.7868
   -4.0849    1.5807   -4.3361
   -3.4638    0.2957   -5.3951
   -1.4452    1.9211   -4.6919
    0.1246    0.2221   -2.8934
    0.6770    1.7146   -3.6840
   -2.1220    1.8569    0.9245
   -0.9743    4.1956   -0.6537
   -2.6911    3.7467   -0.5597
   -1.8417    4.3194    0.8922
    0.0980    0.2861    1.1437
    1.5832    3.1802    2.8380
    3.7868    3.1357    3.9786
    5.2024    1.0980    3.8733
    4.3806   -0.9276    2.7164
    3.5830   -2.3567    1.6692
    2.9362   -4.1356    0.2692
    1.7723   -3.0469   -0.5167
    0.8885   -2.8447    3.0469
   -1.1604   -4.6750    3.5594
   -1.2211   -6.2410    1.4778
@<BUDE>CONF  20
   -3.4508    1.9236    4.1397
   -4.5564    2.1826    3.1204
   -4.2473    1.4380    1.8436
   -3.2262    0.7574    1.7595
   -5.0796    1.5181    0.8094
   -4.7787    0.7932   -0.4335
   -3.7020    1.5280   -1.1956
   -3.9481    2.0161   -2.2582
   -2.4605    1.6338   -0.6761
   -1.4740    2.3388   -1.4342
   -1.2808    1.6518   -2.7830
   -0.1663    2.3399   -0.6791
    0.3663    3.4051   -0.3717
    0.4100    1.1884   -0.3464
    1.6354    1.1878    0.3610
    2.0716    2.3199    1.0594
    3.3142    2.2902    1.7037
    4.1103    1.1390    1.6494
    3.6542   -0.0027    0.9799
    2.4199    0.0291    0.3203
    1.8756   -1.1103   -0.4519
    0.7870   -1.0069   -1.0152
    2.5639   -2.2452   -0.5363
    2.0234   -3.3768   -1.3033
    3.1457   -4.3194   -1.6664
    3.4086   -5.4989   -1.0871
    4.5942   -5.9839   -1.8285
    4.8330   -5.0263   -2.7287
    3.9802   -3.9251   -2.7097
   -2.5025    2.2813    3.7440
   -3.6802    2.4494    5.0641
   -3.3827    0.8557    4.3363
   -4.6161    3.2488    2.9122
   -5.5074    1.8366    3.5201
   -5.9184    2.0767    0.8773
   -4.4324   -0.2100   -0.1942
   -5.6767    0.7313   -1.0446
   -1.8016    3.3642   -1.5923
   -0.9653    0.6229   -2.6234
   -2.2197    1.6628   -3.3326
   -0.5200    2.1808   -3.3531
   -0.0273    0.3138   -0.5989
    1.4579    3.2079    1.0954
    3.6615    3.1634    2.2360
    5.0771    1.1257    2.1307
    4.2553   -0.8999    0.9738
    3.4577   -2.3290   -0.0734
    1.5518   -3.0065   -2.2111
    1.2870   -3.9039   -0.7004
    2.8994   -5.9998   -0.2772
    5.1394   -6.9046   -1.6823
    5.6384   -5.0543   -3.4476
@<BUDE>CONF  21
   -3.4822    0.1223   -5.6491
   -3.7755    0.5292   -4.2080
   -2.4987    0.4831   -3.4031
   -2.4077   -0.2705   -2.4353
   -1.4718    1.2580   -3.7408
   -0.2289    1.2131   -2.9573
   -0.4222    1.9693   -1.6647
    0.2009    2.9675   -1.4566
   -1.2998    1.5176   -0.7437
   -1.4489    2.2672    0.4649
   -1.8426    3.7028    0.1291
   -0.1412    2.2683    1.2200
    0.3914    3.3335    1.5274
    0.4351    1.1168    1.5527
    1.6605    1.1162    2.2601
    2.0967    2.2483    2.9585
    3.3393    2.2186    3.6028
    4.1354    1.0674    3.5485
    3.6793   -0.0743    2.8790
    2.4450   -0.0425    2.2194
    1.9007   -1.1819    1.4472
    0.8121   -1.0785    0.8839
    2.5890   -2.3168    1.3628
    2.0485   -3.4484    0.5958
    0.9237   -4.0901    1.3724
    0.4656   -3.7018    2.5703
   -0.6215   -4.6675    2.8468
   -0.6397   -5.4584    1.7705
    0.3000   -5.1853    0.7792
   -3.0914   -0.8930   -5.6663
   -4.3996    0.1684   -6.2322
   -2.7467    0.8018   -6.0746
   -4.5003   -0.1580   -3.7767
   -4.1780    1.5399   -4.1907
   -1.5454    1.8772   -4.5354
    0.0244    0.1782   -2.7369
    0.5768    1.6707   -3.5275
   -2.2222    1.8130    1.0810
   -1.0745    4.1517   -0.4972
   -2.7913    3.7028   -0.4032
   -1.9419    4.2755    1.0487
   -0.0022    0.2422    1.3002
    1.4830    3.1363    2.9945
    3.6866    3.0918    4.1351
    5.1022    1.0541    4.0298
    4.2804   -0.9715    2.8729
    3.4828   -2.4006    1.8257
    2.8360   -4.1795    0.4257
    1.6721   -3.0908   -0.3602
    0.7883   -2.8886    3.2034
   -1.2606   -4.7189    3.7159
   -1.3213   -6.2849    1.6343
@<BUDE>CONF  22
   -4.2950    3.2090    3.2529
   -5.5978    2.7469    2.6065
   -5.2886    2.0022    1.3297
   -5.7176    2.4184    0.2548
   -4.5520    0.8954    1.3677
   -4.2511    0.1705    0.1248
   -3.1744    0.9053   -0.6373
   -3.4205    1.3934   -1.6999
   -1.9329    1.0111   -0.1178
   -0.9464    1.7161   -0.8759
   -0.7532    1.0291   -2.2247
    0.3613    1.7172   -0.1208
    0.8939    2.7824    0.1866
    0.9376    0.5657    0.2119
    2.1630    0.5651    0.9193
    2.5992    1.6972    1.6177
    3.8418    1.6675    2.2620
    4.6379    0.5163    2.2077
    4.1818   -0.6254    1.5382
    2.9475   -0.5936    0.8786
    2.4032   -1.7330    0.1064
    1.3146   -1.6296   -0.4569
    3.0915   -2.8679    0.0220
    2.5510   -3.9995   -0.7450
    2.6804   -3.7130   -2.2219
    3.5865   -4.2422   -3.0552
    3.2531   -3.6219   -4.3570
    2.2033   -2.8405   -4.0890
    1.7625   -2.8187   -2.7678
   -3.7708    3.8776    2.5732
   -4.5170    3.7340    4.1796
   -3.6699    2.3443    3.4659
   -6.2178    3.6117    2.3801
   -6.1289    2.0880    3.2903
   -4.1993    0.5527    2.2499
   -3.9048   -0.8327    0.3641
   -5.1491    0.1086   -0.4863
   -1.2740    2.7415   -1.0340
   -0.4377    0.0002   -2.0651
   -1.6921    1.0401   -2.7743
    0.0076    1.5581   -2.7948
    0.5003   -0.3089   -0.0406
    1.9855    2.5852    1.6537
    4.1891    2.5407    2.7943
    5.6047    0.5030    2.6890
    4.7829   -1.5226    1.5321
    3.9853   -2.9517    0.4849
    1.5020   -4.1398   -0.4926
    3.1073   -4.9017   -0.4998
    4.3778   -4.9499   -2.8569
    3.7405   -3.7706   -5.3091
    1.6953   -2.2315   -4.8220
@<BUDE>CONF  23
   -3.2034    3.3224   -5.8444
   -3.0632    1.9496   -5.1929
   -1.7864    1.9035   -4.3880
   -1.0517    2.8889   -4.3416
   -1.4559    0.7966   -3.7289
   -0.2130    0.7517   -2.9454
   -0.4063    1.5079   -1.6528
    0.2168    2.5061   -1.4447
   -1.2839    1.0562   -0.7318
   -1.4330    1.8058    0.4768
   -1.8267    3.2414    0.1410
   -0.1253    1.8069    1.2319
    0.4073    2.8721    1.5393
    0.4510    0.6554    1.5646
    1.6764    0.6548    2.2720
    2.5266    1.7668    2.2533
    3.7522    1.7030    2.9270
    4.1213    0.5385    3.6124
    3.2522   -0.5580    3.6583
    2.0335   -0.5040    2.9716
    1.0717   -1.6279    2.9227
    0.0233   -1.5125    2.2899
    1.3416   -2.7619    3.5631
    0.3863   -3.8781    3.5146
    0.4474   -4.5329    2.1553
   -0.4395   -4.3814    1.1623
    0.1088   -5.2353    0.0848
    1.2301   -5.7413    0.6054
    1.5361   -5.3670    1.9118
   -2.3606    3.4948   -6.5105
   -4.1299    3.3601   -6.4135
   -3.2194    4.0893   -5.0729
   -3.0328    1.1829   -5.9642
   -3.9119    1.7709   -4.5360
   -2.0584   -0.0132   -3.7664
    0.0403   -0.2832   -2.7250
    0.5927    1.2093   -3.5156
   -2.2063    1.3516    1.0929
   -1.0586    3.6903   -0.4853
   -2.7754    3.2414   -0.3913
   -1.9260    3.8141    1.0606
    0.0137   -0.2192    1.3121
    2.2417    2.6615    1.7198
    4.4175    2.5535    2.9085
    5.0758    0.4851    4.1148
    3.5254   -1.4390    4.2202
    2.2028   -2.8555    4.0825
   -0.6191   -3.5022    3.6920
    0.6420   -4.6070    4.2807
   -1.3418   -3.7892    1.1258
   -0.2984   -5.4064   -0.9006
    1.8921   -6.4168    0.0841
@<BUDE>CONF  24
   -6.3967    4.0919   -0.3735
   -5.2960    4.3885   -1.3880
   -3.9545    4.3644   -0.6953
   -3.8879    4.1293    0.5101
   -2.8440    4.5977   -1.3892
   -1.5381    4.5743   -0.7149
   -1.1264    3.1428   -0.4667
   -1.0276    2.7341    0.6518
   -0.8700    2.3243   -1.5091
   -0.4835    0.9772   -1.2249
   -1.5595    0.3066   -0.3756
    0.8242    0.9783   -0.4698
    1.3568    2.0435   -0.1624
    1.4005   -0.1732   -0.1371
    2.6259   -0.1738    0.5703
    3.4761    0.9382    0.5516
    4.7017    0.8744    1.2253
    5.0708   -0.2901    1.9107
    4.2017   -1.3866    1.9566
    2.9830   -1.3326    1.2699
    2.0212   -2.4565    1.2210
    0.9728   -2.3411    0.5882
    2.2911   -3.5905    1.8614
    1.3358   -4.7067    1.8129
    1.3969   -5.3615    0.4536
    2.1948   -5.0054   -0.5623
    1.8417   -5.9723   -1.6258
    0.9073   -6.7471   -1.0681
    0.5466   -6.4445    0.2429
   -6.3876    4.8535    0.4035
   -7.3621    4.0962   -0.8751
   -6.2236    3.1152    0.0733
   -5.4601    5.3711   -1.8252
   -5.3122    3.6345   -2.1722
   -2.8975    4.7910   -2.3791
   -0.7956    5.0606   -1.3441
   -1.6100    5.1001    0.2348
   -0.3627    0.4294   -2.1572
   -1.6881    0.8624    0.5508
   -2.4985    0.2939   -0.9250
   -1.2577   -0.7136   -0.1483
    0.9632   -1.0478   -0.3896
    3.1912    1.8329    0.0181
    5.3670    1.7249    1.2068
    6.0253   -0.3435    2.4131
    4.4749   -2.2676    2.5185
    3.1523   -3.6841    2.3808
    0.3304   -4.3308    1.9903
    1.5915   -5.4356    2.5790
    2.9263   -4.2131   -0.6218
    2.2497   -6.0426   -2.6232
    0.4207   -7.5704   -1.5698
@<BUDE>CONF  25
   -5.0853    5.6181   -2.8604
   -4.4889    4.2168   -2.9573
   -3.1474    4.1927   -2.2646
   -2.1318    3.9113   -2.8989
   -3.0638    4.4759   -0.9678
   -1.7579    4.4525   -0.2935
   -1.3462    3.0210   -0.0453
   -1.2474    2.6123    1.0732
   -1.0898    2.2025   -1.0877
   -0.7033    0.8554   -0.8035
   -1.7793    0.1848    0.0458
    0.6044    0.8565   -0.0484
    1.1370    1.9217    0.2590
    1.1807   -0.2950    0.2843
    2.4061   -0.2956    0.9917
    3.2563    0.8164    0.9730
    4.4819    0.7526    1.6467
    4.8510   -0.4119    2.3321
    3.9819   -1.5084    2.3780
    2.7632   -1.4544    1.6913
    1.8014   -2.5783    1.6424
    0.7530   -2.4629    1.0096
    2.0713   -3.7123    2.2828
    1.1160   -4.8285    2.2343
    1.1771   -5.4833    0.8750
    1.9750   -5.1272   -0.1409
    1.6219   -6.0941   -1.2044
    0.6875   -6.8689   -0.6467
    0.3268   -6.5663    0.6643
   -4.4227    6.3282   -3.3509
   -6.0578    5.6321   -3.3479
   -5.1996    5.8913   -1.8135
   -4.3609    3.9480   -4.0037
   -5.1567    3.5039   -2.4780
   -3.8972    4.7071   -0.4460
   -1.0154    4.9388   -0.9227
   -1.8298    4.9783    0.6562
   -0.5825    0.3076   -1.7358
   -1.9079    0.7406    0.9722
   -2.7183    0.1721   -0.5036
   -1.4775   -0.8354    0.2731
    0.7434   -1.1696    0.0318
    2.9714    1.7111    0.4395
    5.1472    1.6031    1.6282
    5.8055   -0.4653    2.8345
    4.2551   -2.3894    2.9399
    2.9325   -3.8059    2.8022
    0.1106   -4.4526    2.4117
    1.3717   -5.5574    3.0004
    2.7065   -4.3349   -0.2004
    2.0299   -6.1644   -2.2018
    0.2009   -7.6922   -1.1484
@<BUDE>CONF  26
   -3.2740   -2.2187    2.1633
   -2.4242   -1.6721    1.0199
   -2.9525   -0.3204    0.6028
   -3.3597   -0.1456   -0.5445
   -2.9774    0.6819    1.4768
   -3.4917    1.9977    1.0708
   -2.4545    2.7057    0.2323
   -1.9430    3.7081    0.6340
   -2.1049    2.2058   -0.9720
   -1.1184    2.9108   -1.7301
   -0.9252    2.2238   -3.0789
    0.1893    2.9119   -0.9750
    0.7219    3.9771   -0.6676
    0.7656    1.7604   -0.6423
    1.9910    1.7598    0.0651
    2.4272    2.8919    0.7635
    3.6698    2.8622    1.4078
    4.4659    1.7110    1.3535
    4.0098    0.5693    0.6840
    2.7755    0.6011    0.0244
    2.2312   -0.5383   -0.7478
    1.1426   -0.4349   -1.3111
    2.9195   -1.6732   -0.8322
    2.3790   -2.8048   -1.5992
    1.2542   -3.4465   -0.8226
    0.7961   -3.0582    0.3753
   -0.2910   -4.0239    0.6518
   -0.3092   -4.8148   -0.4245
    0.6305   -4.5417   -1.4158
   -4.3031   -2.3307    1.8281
   -2.8853   -3.1866    2.4727
   -3.2388   -1.5277    3.0030
   -2.4700   -2.3552    0.1744
   -1.3924   -1.5713    1.3502
   -2.6432    0.5395    2.4192
   -4.4014    1.8683    0.4883
   -3.7087    2.5919    1.9560
   -1.4460    3.9362   -1.8882
   -0.6097    1.1949   -2.9193
   -1.8641    2.2348   -3.6285
   -0.1644    2.7528   -3.6490
    0.3283    0.8858   -0.8948
    1.8135    3.7799    0.7995
    4.0171    3.7354    1.9401
    5.4327    1.6977    1.8348
    4.6109   -0.3279    0.6779
    3.8133   -1.7570   -0.3693
    3.1665   -3.5359   -1.7693
    2.0026   -2.4472   -2.5552
    1.1188   -2.2450    1.0084
   -0.9301   -4.0753    1.5209
   -0.9908   -5.6413   -0.5607
@<BUDE>CONF  27
   -3.0611    1.0712   -6.2527
   -3.1116    2.1342   -5.1591
   -1.8348    2.0881   -4.3542
   -1.1001    3.0735   -4.3078
   -1.5043    0.9812   -3.6951
   -0.2614    0.9363   -2.9116
   -0.4547    1.6925   -1.6190
    0.1684    2.6907   -1.4109
   -1.3323    1.2408   -0.6980
   -1.4814    1.9904    0.5106
   -1.8751    3.4260    0.1748
   -0.1737    1.9915    1.2657
    0.3589    3.0567    1.5731
    0.4026    0.8400    1.5984
    1.6280    0.8394    2.3058
    2.4782    1.9514    2.2871
    3.7038    1.8876    2.9608
    4.0729    0.7231    3.6462
    3.2038   -0.3734    3.6921
    1.9851   -0.3194    3.0054
    1.0233   -1.4433    2.9565
   -0.0251   -1.3279    2.3237
    1.2932   -2.5773    3.5969
    0.3379   -3.6935    3.5484
    0.3990   -4.3483    2.1891
    1.1969   -3.9922    1.1732
    0.8438   -4.9591    0.1097
   -0.0906   -5.7339    0.6674
   -0.4513   -5.4313    1.9784
   -2.9670    0.0875   -5.7973
   -3.9753    1.1133   -6.8410
   -2.2049    1.2560   -6.8980
   -3.9592    1.9423   -4.5047
   -3.2182    3.1174   -5.6129
   -2.1068    0.1714   -3.7326
   -0.0081   -0.0986   -2.6912
    0.5443    1.3939   -3.4818
   -2.2547    1.5362    1.1267
   -1.1070    3.8749   -0.4515
   -2.8238    3.4260   -0.3575
   -1.9744    3.9987    1.0944
   -0.0347   -0.0346    1.3459
    2.1933    2.8461    1.7536
    4.3691    2.7381    2.9423
    5.0274    0.6697    4.1486
    3.4770   -1.2544    4.2540
    2.1544   -2.6709    4.1163
   -0.6675   -3.3176    3.7258
    0.5936   -4.4224    4.3145
    1.9284   -3.1999    1.1137
    1.2518   -5.0294   -0.8877
   -0.5772   -6.5572    0.1657
@<BUDE>CONF  28
   -5.0516    5.6209   -2.8602
   -4.4552    4.2196   -2.9571
   -3.1137    4.1955   -2.2644
   -2.0981    3.9141   -2.8987
   -3.0301    4.4787   -0.9676
   -1.7242    4.4553   -0.2933
   -1.3125    3.0238   -0.0451
   -1.2137    2.6151    1.0734
   -1.0561    2.2053   -1.0875
   -0.6696    0.8582   -0.8033
   -1.7456    0.1876    0.0460
    0.6381    0.8593   -0.0482
    1.1707    1.9245    0.2592
    1.2144   -0.2922    0.2845
    2.4398   -0.2928    0.9919
    3.2900    0.8192    0.9732
    4.5156    0.7554    1.6469
    4.8847   -0.4091    2.3323
    4.0156   -1.5056    2.3782
    2.7969   -1.4516    1.6915
    1.8351   -2.5755    1.6426
    0.7867   -2.4601    1.0098
    2.1050   -3.7095    2.2830
    1.1497   -4.8257    2.2345
    1.2108   -5.4805    0.8752
    0.3239   -5.3290   -0.1178
    0.8722   -6.1829   -1.1953
    1.9935   -6.6889   -0.6747
    2.2995   -6.3146    0.6317
   -4.3890    6.3310   -3.3507
   -6.0241    5.6349   -3.3477
   -5.1659    5.8941   -1.8133
   -4.3272    3.9508   -4.0035
   -5.1230    3.5067   -2.4778
   -3.8635    4.7099   -0.4458
   -0.9817    4.9416   -0.9225
   -1.7961    4.9811    0.6564
   -0.5488    0.3104   -1.7356
   -1.8742    0.7434    0.9724
   -2.6846    0.1749   -0.5034
   -1.4438   -0.8326    0.2733
    0.7771   -1.1668    0.0320
    3.0051    1.7139    0.4397
    5.1809    1.6059    1.6284
    5.8392   -0.4625    2.8347
    4.2888   -2.3866    2.9401
    2.9662   -3.8031    2.8024
    0.1443   -4.4498    2.4119
    1.4054   -5.5546    3.0006
   -0.5784   -4.7368   -0.1543
    0.4650   -6.3540   -2.1807
    2.6555   -7.3644   -1.1960
@<BUDE>CONF  29
   -5.0267   -1.3284   -2.6057
   -4.9539   -0.2090   -1.5712
   -4.4152   -0.7595   -0.2724
   -4.1155   -1.9492   -0.1850
   -4.2648    0.0426    0.7779
   -4.6231    1.4643    0.6734
   -3.5464    2.1991   -0.0887
   -3.7925    2.6872   -1.1513
   -2.3049    2.3049    0.4308
   -1.3184    3.0099   -0.3273
   -1.1252    2.3229   -1.6761
   -0.0107    3.0110    0.4278
    0.5219    4.0762    0.7352
    0.5656    1.8595    0.7605
    1.7910    1.8589    1.4679
    2.2272    2.9910    2.1663
    3.4698    2.9613    2.8106
    4.2659    1.8101    2.7563
    3.8098    0.6684    2.0868
    2.5755    0.7002    1.4272
    2.0312   -0.4392    0.6550
    0.9426   -0.3358    0.0917
    2.7195   -1.5741    0.5706
    2.1790   -2.7057   -0.1964
    3.3013   -3.6483   -0.5595
    3.5642   -4.8278    0.0198
    4.7498   -5.3128   -0.7216
    4.9886   -4.3552   -1.6218
    4.1358   -3.2540   -1.6028
   -5.6964   -2.1082   -2.2489
   -5.4023   -0.9289   -3.5455
   -4.0334   -1.7448   -2.7590
   -5.9490    0.1988   -1.4065
   -4.2941    0.5772   -1.9325
   -3.9046   -0.3246    1.6471
   -5.5703    1.5626    0.1473
   -4.7156    1.8899    1.6704
   -1.6460    4.0353   -0.4854
   -0.8097    1.2940   -1.5165
   -2.0641    2.3339   -2.2257
   -0.3644    2.8519   -2.2462
    0.1283    0.9849    0.5080
    1.6135    3.8790    2.2023
    3.8171    3.8345    3.3429
    5.2327    1.7968    3.2376
    4.4109   -0.2288    2.0807
    3.6133   -1.6579    1.0335
    1.7074   -2.3354   -1.1042
    1.4426   -3.2328    0.4065
    3.0550   -5.3287    0.8297
    5.2950   -6.2335   -0.5754
    5.7940   -4.3832   -2.3407
@<BUDE>CONF  30
    2.8512    0.6434   -2.5526
    1.4214    1.0387   -2.9107
    0.5531   -0.1962   -2.9481
    1.0409   -1.2994   -2.7078
   -0.7399   -0.0907   -3.2411
   -1.3227    1.2278   -3.5283
   -1.5160    1.9840   -2.2357
   -0.8929    2.9822   -2.0276
   -2.3936    1.5323   -1.3147
   -2.5427    2.2819   -0.1061
   -2.9364    3.7175   -0.4419
   -1.2350    2.2830    0.6490
   -0.7024    3.3482    0.9564
   -0.6587    1.1315    0.9817
    0.5667    1.1309    1.6891
    1.4169    2.2429    1.6704
    2.6425    2.1791    2.3441
    3.0116    1.0146    3.0295
    2.1425   -0.0819    3.0754
    0.9238   -0.0279    2.3887
   -0.0380   -1.1518    2.3398
   -1.0864   -1.0364    1.7070
    0.2319   -2.2858    2.9802
   -0.7234   -3.4020    2.9317
   -0.6623   -4.0568    1.5724
    0.1356   -3.7007    0.5565
   -0.2175   -4.6676   -0.5070
   -1.1519   -5.4424    0.0507
   -1.5126   -5.1398    1.3617
    3.2386   -0.0370   -3.3081
    3.4739    1.5346   -2.5127
    2.8585    0.1511   -1.5824
    1.4108    1.5184   -3.8871
    1.0372    1.7289   -2.1625
   -1.3216   -0.9160   -3.2664
   -0.6533    1.7872   -4.1784
   -2.2846    1.1004   -4.0206
   -3.3160    1.8277    0.5100
   -2.1683    4.1664   -1.0682
   -3.8851    3.7175   -0.9742
   -3.0357    4.2902    0.4777
   -1.0960    0.2569    0.7292
    1.1320    3.1376    1.1369
    3.3078    3.0296    2.3256
    3.9661    0.9612    3.5319
    2.4157   -0.9629    3.6373
    1.0931   -2.3794    3.4996
   -1.7288   -3.0261    3.1091
   -0.4677   -4.1309    3.6978
    0.8671   -2.9084    0.4970
    0.1905   -4.7379   -1.5044
   -1.6385   -6.2657   -0.4510
@<BUDE>CONF  31
   -1.1104   -1.5660    1.5665
   -1.8074   -0.9054    2.7524
   -2.3357    0.4464    2.3354
   -1.9360    1.4643    2.8983
   -3.2340    0.5363    1.3587
   -3.7483    1.8521    0.9527
   -2.7111    2.5601    0.1142
   -2.1996    3.5625    0.5159
   -2.3615    2.0602   -1.0901
   -1.3750    2.7652   -1.8482
   -1.1818    2.0782   -3.1970
   -0.0673    2.7663   -1.0931
    0.4653    3.8315   -0.7857
    0.5090    1.6148   -0.7604
    1.7344    1.6142   -0.0530
    2.1706    2.7463    0.6454
    3.4132    2.7166    1.2897
    4.2093    1.5654    1.2354
    3.7532    0.4237    0.5659
    2.5189    0.4555   -0.0937
    1.9746   -0.6839   -0.8659
    0.8860   -0.5805   -1.4292
    2.6629   -1.8188   -0.9503
    2.1224   -2.9504   -1.7173
    0.9976   -3.5921   -0.9407
   -0.3126   -3.4597   -1.1882
   -0.9419   -4.2918   -0.1384
    0.0900   -4.7890    0.5489
    1.3619   -4.4057    0.1297
   -0.2763   -0.9455    1.2452
   -0.7413   -2.5455    1.8633
   -1.8173   -1.6770    0.7470
   -1.0978   -0.7809    3.5677
   -2.6340   -1.5311    3.0825
   -3.5630   -0.2989    0.8957
   -4.6580    1.7227    0.3702
   -3.9653    2.4463    1.8379
   -1.7026    3.7906   -2.0063
   -0.8663    1.0493   -3.0374
   -2.1207    2.0892   -3.7466
   -0.4210    2.6072   -3.7671
    0.0717    0.7402   -1.0129
    1.5569    3.6343    0.6814
    3.7605    3.5898    1.8220
    5.1761    1.5521    1.7167
    4.3543   -0.4735    0.5598
    3.5567   -1.9026   -0.4874
    2.9099   -3.6815   -1.8874
    1.7460   -2.5928   -2.6733
   -0.8170   -2.8930   -1.9569
   -1.9942   -4.4653    0.0313
   -0.0061   -5.4492    1.3981
@<BUDE>CONF  32
   -1.7453   -2.2559   -1.9167
   -0.8474   -1.8262   -3.0733
   -1.0957   -0.3703   -3.3880
   -0.1802    0.4454   -3.2917
   -2.3052    0.0302   -3.7695
   -2.5469    1.4474   -4.0759
   -2.6538    2.2286   -2.7881
   -3.6873    2.7474   -2.4871
   -1.5811    2.3410   -1.9763
   -1.7302    3.0906   -0.7677
   -2.1239    4.5262   -1.1035
   -0.4225    3.0917   -0.0126
    0.1101    4.1569    0.2948
    0.1538    1.9402    0.3201
    1.3792    1.9396    1.0275
    2.2294    3.0516    1.0088
    3.4550    2.9878    1.6825
    3.8241    1.8233    2.3679
    2.9550    0.7268    2.4138
    1.7363    0.7808    1.7271
    0.7745   -0.3431    1.6782
   -0.2739   -0.2277    1.0454
    1.0444   -1.4771    2.3186
    0.0891   -2.5933    2.2701
    0.8005   -3.8789    2.6186
    2.0963   -4.0068    2.9351
    2.2437   -5.4589    3.1804
    1.0177   -5.9513    2.9829
    0.0301   -5.0394    2.6178
   -2.7878   -2.1299   -2.2015
   -1.5569   -3.3013   -1.6812
   -1.5304   -1.6424   -1.0443
   -1.0712   -2.4295   -3.9506
    0.1952   -1.9635   -2.7942
   -3.0578   -0.6388   -3.8489
   -1.7217    1.8369   -4.6682
   -3.4742    1.5449   -4.6365
   -2.5035    2.6364   -0.1516
   -1.3558    4.9751   -1.7298
   -3.0726    4.5262   -1.6358
   -2.2232    5.0989   -0.1839
   -0.2835    1.0656    0.0676
    1.9445    3.9463    0.4753
    4.1203    3.8383    1.6640
    4.7786    1.7699    2.8703
    3.2282   -0.1542    2.9757
    1.9056   -1.5707    2.8380
   -0.3285   -2.6691    1.2683
   -0.7115   -2.4159    2.9849
    2.8685   -3.2549    3.0036
    3.1355   -5.9989    3.4619
    0.7586   -6.9953    3.0794
@<BUDE>CONF  33
   -6.4316    3.7552    0.6208
   -5.6240    2.4818    0.3865
   -5.0974    1.9708    1.7062
   -5.3492    2.5774    2.7462
   -4.3608    0.8640    1.7442
   -4.0599    0.1391    0.5013
   -2.9832    0.8739   -0.2608
   -3.2293    1.3620   -1.3234
   -1.7417    0.9797    0.2587
   -0.7552    1.6847   -0.4994
   -0.5620    0.9977   -1.8482
    0.5525    1.6858    0.2557
    1.0851    2.7510    0.5631
    1.1288    0.5343    0.5884
    2.3542    0.5337    1.2958
    2.7904    1.6658    1.9942
    4.0330    1.6361    2.6385
    4.8291    0.4849    2.5842
    4.3730   -0.6568    1.9147
    3.1387   -0.6250    1.2551
    2.5944   -1.7644    0.4829
    1.5058   -1.6610   -0.0804
    3.2827   -2.8993    0.3985
    2.7422   -4.0309   -0.3685
    2.8716   -3.7444   -1.8454
    3.7777   -4.2736   -2.6787
    3.4443   -3.6533   -3.9805
    2.3945   -2.8719   -3.7125
    1.9537   -2.8501   -2.3913
   -5.7898    4.5149    1.0621
   -6.8221    4.1160   -0.3284
   -7.2576    3.5409    1.2957
   -4.7893    2.6979   -0.2771
   -6.2617    1.7254   -0.0662
   -4.0081    0.5213    2.6264
   -3.7136   -0.8641    0.7406
   -4.9579    0.0772   -0.1098
   -1.0828    2.7101   -0.6575
   -0.2465   -0.0312   -1.6886
   -1.5009    1.0087   -2.3978
    0.1988    1.5267   -2.4183
    0.6915   -0.3403    0.3359
    2.1767    2.5538    2.0302
    4.3803    2.5093    3.1708
    5.7959    0.4716    3.0655
    4.9741   -1.5540    1.9086
    4.1765   -2.9831    0.8614
    1.6932   -4.1712   -0.1161
    3.2985   -4.9331   -0.1233
    4.5690   -4.9813   -2.4804
    3.9317   -3.8020   -4.9326
    1.8865   -2.2629   -4.4455
@<BUDE>CONF  34
    0.5674   -1.7042   -2.2566
   -0.5350   -1.8530   -3.3012
   -1.1338   -0.4985   -3.5963
   -2.3274   -0.2929   -3.3820
   -0.3700    0.4728   -4.0883
   -0.9528    1.7913   -4.3755
   -1.1461    2.5475   -3.0829
   -0.5230    3.5457   -2.8748
   -2.0237    2.0958   -2.1619
   -2.1728    2.8454   -0.9533
   -2.5665    4.2810   -1.2891
   -0.8651    2.8465   -0.1982
   -0.3325    3.9117    0.1092
   -0.2888    1.6950    0.1345
    0.9366    1.6944    0.8419
    1.7868    2.8064    0.8232
    3.0124    2.7426    1.4969
    3.3815    1.5781    2.1823
    2.5124    0.4816    2.2282
    1.2937    0.5356    1.5415
    0.3319   -0.5883    1.4926
   -0.7165   -0.4729    0.8598
    0.6018   -1.7223    2.1330
   -0.3535   -2.8385    2.0845
   -0.0902   -3.7756    3.2388
    0.5354   -4.9588    3.1722
    0.5141   -5.4331    4.5740
   -0.1052   -4.4559    5.2418
   -0.5346   -3.3628    4.4928
    0.1450   -1.2984   -1.3397
    1.0078   -2.6781   -2.0538
    1.3339   -1.0300   -2.6329
   -1.3092   -2.5159   -2.9204
   -0.1161   -2.2704   -4.2145
    0.6103    0.3050   -4.2647
   -0.2834    2.3507   -5.0256
   -1.9147    1.6639   -4.8678
   -2.9461    2.3912   -0.3372
   -1.7984    4.7299   -1.9154
   -3.5152    4.2810   -1.8214
   -2.6658    4.8537   -0.3695
   -0.7261    0.8204   -0.1180
    1.5019    3.7011    0.2897
    3.6777    3.5931    1.4784
    4.3360    1.5247    2.6847
    2.7856   -0.3994    2.7901
    1.4630   -1.8159    2.6524
   -0.2350   -3.3759    1.1459
   -1.3674   -2.4506    2.1554
    0.9618   -5.4682    2.3207
    0.9137   -6.3546    4.9707
   -0.2952   -4.4711    6.3048
@<BUDE>CONF  35
    2.8849    0.6461   -2.5524
    1.4551    1.0414   -2.9105
    0.5868   -0.1935   -2.9479
    1.0746   -1.2967   -2.7076
   -0.7062   -0.0880   -3.2409
   -1.2890    1.2305   -3.5281
   -1.4823    1.9867   -2.2355
   -0.8592    2.9849   -2.0274
   -2.3599    1.5350   -1.3145
   -2.5090    2.2846   -0.1059
   -2.9027    3.7202   -0.4417
   -1.2013    2.2857    0.6492
   -0.6687    3.3509    0.9566
   -0.6250    1.1342    0.9819
    0.6004    1.1336    1.6893
    1.4506    2.2456    1.6706
    2.6762    2.1818    2.3443
    3.0453    1.0173    3.0297
    2.1762   -0.0792    3.0756
    0.9575   -0.0252    2.3889
   -0.0043   -1.1491    2.3400
   -1.0527   -1.0337    1.7072
    0.2656   -2.2831    2.9804
   -0.6897   -3.3993    2.9319
   -0.6286   -4.0541    1.5726
   -1.5155   -3.9026    0.5796
   -0.9672   -4.7565   -0.4979
    0.1541   -5.2625    0.0227
    0.4601   -4.8882    1.3291
    3.2723   -0.0343   -3.3079
    3.5076    1.5373   -2.5125
    2.8922    0.1538   -1.5822
    1.4445    1.5211   -3.8869
    1.0709    1.7316   -2.1623
   -1.2879   -0.9133   -3.2662
   -0.6196    1.7899   -4.1782
   -2.2509    1.1031   -4.0204
   -3.2823    1.8304    0.5102
   -2.1346    4.1691   -1.0680
   -3.8514    3.7202   -0.9740
   -3.0020    4.2929    0.4779
   -1.0623    0.2596    0.7294
    1.1657    3.1403    1.1371
    3.3415    3.0323    2.3258
    3.9998    0.9639    3.5321
    2.4494   -0.9602    3.6375
    1.1268   -2.3767    3.4998
   -1.6951   -3.0234    3.1093
   -0.4340   -4.1282    3.6980
   -2.4178   -3.3104    0.5431
   -1.3744   -4.9276   -1.4833
    0.8161   -5.9380   -0.4986
@<BUDE>CONF  36
   -3.4081    4.8006    1.7561
   -4.4869    5.1047    0.7205
   -4.1752    4.3685   -0.5606
   -4.9683    3.5389   -1.0027
   -3.0422    4.6174   -1.2113
   -2.7389    3.9009   -2.4584
   -2.2875    2.4969   -2.1341
   -2.9496    1.5620   -2.4740
   -1.1352    2.2977   -1.4596
   -0.7487    0.9506   -1.1754
   -1.8247    0.2800   -0.3261
    0.5590    0.9517   -0.4203
    1.0916    2.0169   -0.1129
    1.1353   -0.1998   -0.0876
    2.3607   -0.2004    0.6198
    2.7969    0.9317    1.3182
    4.0395    0.9020    1.9625
    4.8356   -0.2492    1.9082
    4.3795   -1.3909    1.2387
    3.1452   -1.3591    0.5791
    2.6009   -2.4985   -0.1931
    1.5123   -2.3951   -0.7564
    3.2892   -3.6334   -0.2775
    2.7487   -4.7650   -1.0445
    1.6239   -5.4067   -0.2679
    0.3137   -5.2743   -0.5154
   -0.3156   -6.1064    0.5344
    0.7163   -6.6036    1.2217
    1.9882   -6.2203    0.8025
   -2.4429    5.1364    1.3827
   -3.6397    5.3204    2.6834
   -3.3738    3.7287    1.9391
   -4.5126    6.1748    0.5260
   -5.4545    4.7806    1.0980
   -2.3902    5.2985   -0.8492
   -3.6308    3.8599   -3.0801
   -1.9471    4.4213   -2.9931
   -0.6279    0.4028   -2.1077
   -1.9533    0.8358    0.6003
   -2.7637    0.2673   -0.8755
   -1.5229   -0.7402   -0.0988
    0.6980   -1.0744   -0.3401
    2.1832    1.8197    1.3542
    4.3868    1.7752    2.4948
    5.8024   -0.2625    2.3895
    4.9806   -2.2881    1.2326
    4.1830   -3.7172    0.1854
    3.5362   -5.4961   -1.2146
    2.3723   -4.4074   -2.0005
   -0.1907   -4.7076   -1.2841
   -1.3679   -6.2799    0.7041
    0.6202   -7.2638    2.0709
@<BUDE>CONF  37
    1.0305   -2.0853   -2.1984
    1.7215   -1.4791   -3.4165
    1.1227   -0.1247   -3.7116
    1.8300    0.8812   -3.6810
   -0.1703   -0.0192   -4.0046
   -0.7531    1.2993   -4.2918
   -0.9464    2.0555   -2.9992
   -0.3233    3.0538   -2.7911
   -1.8240    1.6038   -2.0782
   -1.9731    2.3534   -0.8696
   -2.3668    3.7890   -1.2054
   -0.6654    2.3545   -0.1145
   -0.1328    3.4197    0.1929
   -0.0891    1.2030    0.2182
    1.1363    1.2024    0.9256
    1.9865    2.3144    0.9069
    3.2121    2.2506    1.5806
    3.5812    1.0861    2.2660
    2.7121   -0.0104    2.3119
    1.4934    0.0436    1.6252
    0.5316   -1.0803    1.5763
   -0.5168   -0.9649    0.9435
    0.8015   -2.2143    2.2167
   -0.1538   -3.3305    2.1682
   -1.3387   -3.0165    3.0498
   -1.5188   -1.8987    3.7666
   -2.8255   -2.1244    4.4241
   -3.2113   -3.3252    3.9842
   -2.3423   -3.9803    3.1147
   -0.0304   -2.2070   -2.4073
    1.4709   -3.0554   -1.9778
    1.1589   -1.4248   -1.3434
    1.5817   -2.1317   -4.2757
    2.7846   -1.3685   -3.2134
   -0.7520   -0.8444   -4.0299
   -0.0837    1.8587   -4.9419
   -1.7150    1.1719   -4.7841
   -2.7464    1.8992   -0.2535
   -1.5987    4.2379   -1.8317
   -3.3155    3.7890   -1.7377
   -2.4661    4.3617   -0.2858
   -0.5264    0.3284   -0.0343
    1.7016    3.2091    0.3734
    3.8774    3.1012    1.5621
    4.5357    1.0327    2.7684
    2.9853   -0.8914    2.8738
    1.6627   -2.3079    2.7361
    0.3316   -4.2380    2.5213
   -0.4910   -3.4741    1.1439
   -0.8855   -1.0291    3.8619
   -3.3525   -1.4672    5.0998
   -4.1345   -3.8090    4.2669
@<BUDE>CONF  38
   -3.4659    0.1287   -5.6202
   -3.7592    0.5356   -4.1791
   -2.4824    0.4895   -3.3742
   -2.3914   -0.2641   -2.4064
   -1.4555    1.2644   -3.7119
   -0.2126    1.2195   -2.9284
   -0.4059    1.9757   -1.6358
    0.2172    2.9739   -1.4277
   -1.2835    1.5240   -0.7148
   -1.4326    2.2736    0.4938
   -1.8263    3.7092    0.1580
   -0.1249    2.2747    1.2489
    0.4077    3.3399    1.5563
    0.4514    1.1232    1.5816
    1.6768    1.1226    2.2890
    2.1130    2.2547    2.9874
    3.3556    2.2250    3.6317
    4.1517    1.0738    3.5774
    3.6956   -0.0679    2.9079
    2.4613   -0.0361    2.2483
    1.9170   -1.1755    1.4761
    0.8284   -1.0721    0.9128
    2.6053   -2.3104    1.3917
    2.0648   -3.4420    0.6247
    0.9400   -4.0837    1.4013
   -0.3702   -3.9513    1.1538
   -0.9995   -4.7834    2.2036
    0.0324   -5.2806    2.8909
    1.3043   -4.8973    2.4717
   -3.0751   -0.8866   -5.6374
   -4.3833    0.1748   -6.2033
   -2.7304    0.8082   -6.0457
   -4.4840   -0.1516   -3.7478
   -4.1617    1.5463   -4.1618
   -1.5291    1.8836   -4.5065
    0.0407    0.1846   -2.7080
    0.5931    1.6771   -3.4986
   -2.2059    1.8194    1.1099
   -1.0582    4.1581   -0.4683
   -2.7750    3.7092   -0.3743
   -1.9256    4.2819    1.0776
    0.0141    0.2486    1.3291
    1.4993    3.1427    3.0234
    3.7029    3.0982    4.1640
    5.1185    1.0605    4.0587
    4.2967   -0.9651    2.9018
    3.4991   -2.3942    1.8546
    2.8523   -4.1731    0.4546
    1.6884   -3.0844   -0.3313
   -0.8746   -3.3846    0.3851
   -2.0518   -4.9569    2.3733
   -0.0637   -5.9408    3.7401
@<BUDE>CONF  39
    0.1056    3.2956   -5.1312
    0.3586    1.7912   -5.1679
   -0.6067    1.0966   -4.2374
   -0.1822    0.4393   -3.2883
   -1.9168    1.1955   -4.4442
   -2.8564    0.5193   -3.5385
   -2.9633    1.3005   -2.2507
   -3.9968    1.8193   -1.9497
   -1.8906    1.4129   -1.4389
   -2.0397    2.1625   -0.2303
   -2.4334    3.5981   -0.5661
   -0.7320    2.1636    0.5248
   -0.1994    3.2288    0.8322
   -0.1557    1.0121    0.8575
    1.0697    1.0115    1.5649
    1.9199    2.1235    1.5462
    3.1455    2.0597    2.2199
    3.5146    0.8952    2.9053
    2.6455   -0.2013    2.9512
    1.4268   -0.1473    2.2645
    0.4650   -1.2712    2.2156
   -0.5834   -1.1558    1.5828
    0.7349   -2.4052    2.8560
   -0.2204   -3.5214    2.8075
    0.4910   -4.8070    3.1560
    1.7868   -4.9349    3.4725
    1.9342   -6.3870    3.7178
    0.7082   -6.8794    3.5203
   -0.2794   -5.9675    3.1552
    0.2636    3.6648   -4.1200
    0.7923    3.7949   -5.8116
   -0.9190    3.4979   -5.4358
    1.3788    1.5865   -4.8499
    0.2131    1.4230   -6.1813
   -2.2665    1.7349   -5.2233
   -3.8358    0.4606   -4.0086
   -2.4958   -0.4845   -3.3240
   -2.8130    1.7083    0.3858
   -1.6653    4.0470   -1.1924
   -3.3821    3.5981   -1.0984
   -2.5327    4.1708    0.3535
   -0.5930    0.1375    0.6050
    1.6350    3.0182    1.0127
    3.8108    2.9102    2.2014
    4.4691    0.8418    3.4077
    2.9187   -1.0823    3.5131
    1.5961   -2.4988    3.3754
   -0.6380   -3.5972    1.8057
   -1.0210   -3.3440    3.5223
    2.5590   -4.1830    3.5410
    2.8260   -6.9270    3.9993
    0.4491   -7.9234    3.6168
@<BUDE>CONF  40
    1.8395    1.7415   -3.5841
    1.8197    0.2158   -3.5677
    0.6097   -0.2628   -2.8014
    0.7527   -0.9495   -1.7910
   -0.6114    0.0584   -3.2194
   -1.7892   -0.4075   -2.4734
   -1.9564    0.4271   -1.2261
   -1.8334   -0.0755   -0.1490
   -2.2449    1.7419   -1.3280
   -2.3940    2.4915   -0.1194
   -2.7877    3.9271   -0.4552
   -1.0863    2.4926    0.6357
   -0.5537    3.5578    0.9431
   -0.5100    1.3411    0.9684
    0.7154    1.3405    1.6758
    1.5656    2.4525    1.6571
    2.7912    2.3887    2.3308
    3.1603    1.2242    3.0162
    2.2912    0.1277    3.0621
    1.0725    0.1817    2.3754
    0.1107   -0.9422    2.3265
   -0.9377   -0.8268    1.6937
    0.3806   -2.0762    2.9669
   -0.5747   -3.1924    2.9184
   -0.5136   -3.8472    1.5591
    0.2843   -3.4911    0.5432
   -0.0688   -4.4580   -0.5203
   -1.0032   -5.2328    0.0374
   -1.3639   -4.9302    1.3484
    1.8989    2.1138   -2.5635
    2.7040    2.0863   -4.1475
    0.9296    2.1104   -4.0528
    2.7226   -0.1542   -3.0865
    1.7727   -0.1579   -4.5885
   -0.7300    0.6222   -4.0490
   -2.6759   -0.3094   -3.0962
   -1.6540   -1.4507   -2.1956
   -3.1673    2.0373    0.4967
   -2.0196    4.3760   -1.0815
   -3.7364    3.9271   -0.9875
   -2.8870    4.4998    0.4644
   -0.9473    0.4665    0.7159
    1.2807    3.3472    1.1236
    3.4565    3.2392    2.3123
    4.1148    1.1708    3.5186
    2.5644   -0.7533    3.6240
    1.2418   -2.1698    3.4863
   -1.5801   -2.8165    3.0958
   -0.3190   -3.9213    3.6845
    1.0158   -2.6988    0.4837
    0.3392   -4.5283   -1.5177
   -1.4898   -6.0561   -0.4643
@<BUDE>CONF  41
    0.4776    2.7158   -5.1806
    0.8199    1.4217   -4.4479
   -0.3900    0.9431   -3.6816
   -1.4377    1.5864   -3.7205
   -0.3228   -0.1746   -2.9640
   -1.5006   -0.6405   -2.2180
   -1.6678    0.1941   -0.9707
   -1.5448   -0.3085    0.1064
   -1.9563    1.5089   -1.0726
   -2.1054    2.2585    0.1360
   -2.4991    3.6941   -0.1998
   -0.7977    2.2596    0.8911
   -0.2651    3.3248    1.1985
   -0.2214    1.1081    1.2238
    1.0040    1.1075    1.9312
    1.8542    2.2195    1.9125
    3.0798    2.1557    2.5862
    3.4489    0.9912    3.2716
    2.5798   -0.1053    3.3175
    1.3611   -0.0513    2.6308
    0.3993   -1.1752    2.5819
   -0.6491   -1.0598    1.9491
    0.6692   -2.3092    3.2223
   -0.2861   -3.4254    3.1738
   -0.2250   -4.0802    1.8145
   -1.1119   -3.9287    0.8215
   -0.5636   -4.7826   -0.2560
    0.5577   -5.2886    0.2646
    0.8637   -4.9143    1.5710
    0.1948    3.4776   -4.4571
    1.3454    3.0535   -5.7434
   -0.3509    2.5373   -5.8627
    1.6391    1.6023   -3.7550
    1.1149    0.6628   -5.1695
    0.5370   -0.7036   -2.9312
   -2.3873   -0.5424   -2.8408
   -1.3654   -1.6837   -1.9402
   -2.8787    1.8043    0.7521
   -1.7310    4.1430   -0.8261
   -3.4478    3.6941   -0.7321
   -2.5984    4.2668    0.7198
   -0.6587    0.2335    0.9713
    1.5693    3.1142    1.3790
    3.7451    3.0062    2.5677
    4.4034    0.9378    3.7740
    2.8530   -0.9863    3.8794
    1.5304   -2.4028    3.7417
   -1.2915   -3.0495    3.3512
   -0.0304   -4.1543    3.9399
   -2.0142   -3.3365    0.7850
   -0.9708   -4.9537   -1.2414
    1.2197   -5.9641   -0.2567
@<BUDE>CONF  42
   -2.1753   -1.7882    1.8966
   -3.2550   -1.6135    0.8325
   -3.6231   -0.1530    0.7252
   -3.0659    0.6768    1.4421
   -4.5504    0.2365   -0.1450
   -4.9087    1.6582   -0.2495
   -3.8320    2.3930   -1.0116
   -4.0781    2.8811   -2.0742
   -2.5905    2.4988   -0.4921
   -1.6040    3.2038   -1.2502
   -1.4108    2.5168   -2.5990
   -0.2963    3.2049   -0.4951
    0.2363    4.2701   -0.1877
    0.2800    2.0534   -0.1624
    1.5054    2.0528    0.5450
    1.9416    3.1849    1.2434
    3.1842    3.1552    1.8877
    3.9803    2.0040    1.8334
    3.5242    0.8623    1.1639
    2.2899    0.8941    0.5043
    1.7456   -0.2453   -0.2679
    0.6570   -0.1419   -0.8312
    2.4339   -1.3802   -0.3523
    1.8934   -2.5118   -1.1193
    2.5647   -3.7882   -0.6720
    3.5020   -3.8994    0.2791
    3.7927   -5.3504    0.3008
    2.9778   -5.8624   -0.6255
    2.1618   -4.9614   -1.3058
   -2.5561   -1.4493    2.8578
   -1.9006   -2.8388    1.9645
   -1.3008   -1.2008    1.6248
   -4.1354   -2.1893    1.1102
   -2.8796   -1.9637   -0.1268
   -5.0086   -0.4440   -0.7342
   -5.8559    1.7565   -0.7756
   -5.0012    2.0838    0.7475
   -1.9316    4.2292   -1.4083
   -1.0953    1.4879   -2.4394
   -2.3497    2.5278   -3.1486
   -0.6500    3.0458   -3.1691
   -0.1573    1.1788   -0.4149
    1.3279    4.0729    1.2794
    3.5315    4.0284    2.4200
    4.9471    1.9907    2.3147
    4.1253   -0.0349    1.1578
    3.3277   -1.4640    0.1106
    2.0822   -2.3540   -2.1791
    0.8215   -2.5858   -0.9484
    3.9545   -3.1371    0.8960
    4.4968   -5.8786    0.9266
    2.9251   -6.9114   -0.8767
@<BUDE>CONF  43
    2.1859    1.4803   -4.2687
    1.0427    1.2092   -5.2425
   -0.1672    0.7306   -4.4762
   -1.2149    1.3739   -4.5151
   -0.1000   -0.3871   -3.7586
   -1.2778   -0.8530   -3.0126
   -1.4450   -0.0184   -1.7653
   -1.3220   -0.5210   -0.6882
   -1.7335    1.2964   -1.8672
   -1.8826    2.0460   -0.6586
   -2.2763    3.4816   -0.9944
   -0.5749    2.0471    0.0965
   -0.0423    3.1123    0.4039
    0.0014    0.8956    0.4292
    1.2268    0.8950    1.1366
    2.0770    2.0070    1.1179
    3.3026    1.9432    1.7916
    3.6717    0.7787    2.4770
    2.8026   -0.3178    2.5229
    1.5839   -0.2638    1.8362
    0.6221   -1.3877    1.7873
   -0.4263   -1.2723    1.1545
    0.8920   -2.5217    2.4277
   -0.0633   -3.6379    2.3792
   -1.2482   -3.3239    3.2608
   -1.4283   -2.2061    3.9776
   -2.7350   -2.4318    4.6351
   -3.1208   -3.6326    4.1952
   -2.2518   -4.2877    3.3257
    2.4412    0.5612   -3.7453
    3.0534    1.8378   -4.8194
    1.8766    2.2346   -3.5483
    1.3457    0.4447   -5.9548
    0.7948    2.1248   -5.7755
    0.7598   -0.9161   -3.7258
   -2.1645   -0.7549   -3.6354
   -1.1426   -1.8962   -2.7348
   -2.6559    1.5918   -0.0425
   -1.5082    3.9305   -1.6207
   -3.2250    3.4816   -1.5267
   -2.3756    4.0543   -0.0748
   -0.4359    0.0210    0.1767
    1.7921    2.9017    0.5844
    3.9679    2.7937    1.7731
    4.6262    0.7253    2.9794
    3.0758   -1.1988    3.0848
    1.7532   -2.6153    2.9471
    0.4221   -4.5454    2.7323
   -0.4005   -3.7815    1.3549
   -0.7950   -1.3365    4.0729
   -3.2620   -1.7746    5.3108
   -4.0440   -4.1164    4.4779
@<BUDE>CONF  44
    0.4439    2.7130   -5.1807
    0.7862    1.4189   -4.4480
   -0.4237    0.9403   -3.6817
   -1.4714    1.5836   -3.7206
   -0.3565   -0.1774   -2.9641
   -1.5343   -0.6433   -2.2181
   -1.7015    0.1913   -0.9708
   -1.5785   -0.3113    0.1063
   -1.9900    1.5061   -1.0727
   -2.1391    2.2557    0.1359
   -2.5328    3.6913   -0.1999
   -0.8314    2.2568    0.8910
   -0.2988    3.3220    1.1984
   -0.2551    1.1053    1.2237
    0.9703    1.1047    1.9311
    1.8205    2.2167    1.9124
    3.0461    2.1529    2.5861
    3.4152    0.9884    3.2715
    2.5461   -0.1081    3.3174
    1.3274   -0.0541    2.6307
    0.3656   -1.1780    2.5818
   -0.6828   -1.0626    1.9490
    0.6355   -2.3120    3.2222
   -0.3198   -3.4282    3.1737
   -0.2587   -4.0830    1.8144
    0.5392   -3.7269    0.7985
    0.1861   -4.6938   -0.2650
   -0.7483   -5.4686    0.2927
   -1.1090   -5.1660    1.6037
    0.1611    3.4748   -4.4572
    1.3117    3.0507   -5.7435
   -0.3846    2.5345   -5.8628
    1.6054    1.5995   -3.7551
    1.0812    0.6600   -5.1696
    0.5033   -0.7064   -2.9313
   -2.4210   -0.5452   -2.8409
   -1.3991   -1.6865   -1.9403
   -2.9124    1.8015    0.7520
   -1.7647    4.1402   -0.8262
   -3.4815    3.6913   -0.7322
   -2.6321    4.2640    0.7197
   -0.6924    0.2307    0.9712
    1.5356    3.1114    1.3789
    3.7114    3.0034    2.5676
    4.3697    0.9350    3.7739
    2.8193   -0.9891    3.8793
    1.4967   -2.4056    3.7416
   -1.3252   -3.0523    3.3511
   -0.0641   -4.1571    3.9398
    1.2707   -2.9346    0.7390
    0.5941   -4.7641   -1.2624
   -1.2349   -6.2919   -0.2090
@<BUDE>CONF  45
   -5.4428    3.8822    1.0825
   -4.0384    4.1120    0.5317
   -4.1201    4.4008   -0.9482
   -5.2128    4.4203   -1.5124
   -3.0096    4.6341   -1.6421
   -1.7037    4.6107   -0.9678
   -1.2920    3.1792   -0.7196
   -1.1932    2.7705    0.3989
   -1.0356    2.3607   -1.7620
   -0.6491    1.0136   -1.4778
   -1.7251    0.3430   -0.6285
    0.6586    1.0147   -0.7227
    1.1912    2.0799   -0.4153
    1.2349   -0.1368   -0.3900
    2.4603   -0.1374    0.3174
    3.3105    0.9746    0.2987
    4.5361    0.9108    0.9724
    4.9052   -0.2537    1.6578
    4.0361   -1.3502    1.7037
    2.8174   -1.2962    1.0170
    1.8556   -2.4201    0.9681
    0.8072   -2.3047    0.3353
    2.1255   -3.5541    1.6085
    1.1702   -4.6703    1.5600
    1.2313   -5.3251    0.2007
    2.0292   -4.9690   -0.8152
    1.6761   -5.9359   -1.8787
    0.7417   -6.7107   -1.3210
    0.3810   -6.4081   -0.0100
   -5.8930    3.0279    0.5811
   -5.3851    3.6873    2.1513
   -6.0499    4.7678    0.9069
   -3.4343    3.2218    0.6940
   -3.5824    4.9584    1.0411
   -3.0631    4.8274   -2.6320
   -0.9612    5.0970   -1.5970
   -1.7756    5.1365   -0.0181
   -0.5283    0.4658   -2.4101
   -1.8537    0.8988    0.2979
   -2.6641    0.3303   -1.1779
   -1.4233   -0.6772   -0.4012
    0.7976   -1.0114   -0.6425
    3.0256    1.8693   -0.2348
    5.2014    1.7613    0.9539
    5.8597   -0.3071    2.1602
    4.3093   -2.2312    2.2656
    2.9867   -3.6477    2.1279
    0.1648   -4.2944    1.7374
    1.4259   -5.3992    2.3261
    2.7607   -4.1767   -0.8747
    2.0841   -6.0062   -2.8761
    0.2551   -7.5340   -1.8227
@<BUDE>CONF  46
   -5.4091    3.8849    1.0827
   -4.0047    4.1147    0.5319
   -4.0864    4.4035   -0.9480
   -5.1791    4.4230   -1.5122
   -2.9759    4.6368   -1.6419
   -1.6700    4.6134   -0.9676
   -1.2583    3.1819   -0.7194
   -1.1595    2.7732    0.3991
   -1.0019    2.3634   -1.7618
   -0.6154    1.0163   -1.4776
   -1.6914    0.3457   -0.6283
    0.6923    1.0174   -0.7225
    1.2249    2.0826   -0.4151
    1.2686   -0.1341   -0.3898
    2.4940   -0.1347    0.3176
    3.3442    0.9773    0.2989
    4.5698    0.9135    0.9726
    4.9389   -0.2510    1.6580
    4.0698   -1.3475    1.7039
    2.8511   -1.2935    1.0172
    1.8893   -2.4174    0.9683
    0.8409   -2.3020    0.3355
    2.1592   -3.5514    1.6087
    1.2039   -4.6676    1.5602
    1.2650   -5.3224    0.2009
    0.3781   -5.1709   -0.7921
    0.9264   -6.0248   -1.8696
    2.0477   -6.5308   -1.3490
    2.3537   -6.1565   -0.0426
   -5.8593    3.0306    0.5813
   -5.3514    3.6900    2.1515
   -6.0162    4.7705    0.9071
   -3.4006    3.2245    0.6942
   -3.5487    4.9611    1.0413
   -3.0294    4.8301   -2.6318
   -0.9275    5.0997   -1.5968
   -1.7419    5.1392   -0.0179
   -0.4946    0.4685   -2.4099
   -1.8200    0.9015    0.2981
   -2.6304    0.3330   -1.1777
   -1.3896   -0.6745   -0.4010
    0.8313   -1.0087   -0.6423
    3.0593    1.8720   -0.2346
    5.2351    1.7640    0.9541
    5.8934   -0.3044    2.1604
    4.3430   -2.2285    2.2658
    3.0204   -3.6450    2.1281
    0.1985   -4.2917    1.7376
    1.4596   -5.3965    2.3263
   -0.5242   -4.5787   -0.8286
    0.5192   -6.1959   -2.8550
    2.7097   -7.2063   -1.8703
@<BUDE>CONF  47
   -3.2628    3.9114   -5.7015
   -3.0867    2.6629   -4.8420
   -1.6909    2.1177   -5.0278
   -0.9046    2.6835   -5.7858
   -1.3114    1.0250   -4.3714
   -2.2510    0.3488   -3.4657
   -2.3579    1.1300   -2.1779
   -3.3914    1.6488   -1.8769
   -1.2852    1.2424   -1.3661
   -1.4343    1.9920   -0.1575
   -1.8280    3.4276   -0.4933
   -0.1266    1.9931    0.5976
    0.4060    3.0583    0.9050
    0.4497    0.8416    0.9303
    1.6751    0.8410    1.6377
    2.5253    1.9530    1.6190
    3.7509    1.8892    2.2927
    4.1200    0.7247    2.9781
    3.2509   -0.3718    3.0240
    2.0322   -0.3178    2.3373
    1.0704   -1.4417    2.2884
    0.0220   -1.3263    1.6556
    1.3403   -2.5757    2.9288
    0.3850   -3.6919    2.8803
    1.0964   -4.9775    3.2288
    2.3922   -5.1054    3.5453
    2.5396   -6.5575    3.7906
    1.3136   -7.0499    3.5931
    0.3260   -6.1380    3.2280
   -3.1221    3.6527   -6.7489
   -4.2641    4.3118   -5.5574
   -2.5274    4.6583   -5.4099
   -3.8124    1.9099   -5.1421
   -3.2395    2.9179   -3.7953
   -0.3779    0.6594   -4.4949
   -3.2304    0.2901   -3.9358
   -1.8904   -0.6550   -3.2512
   -2.2076    1.5378    0.4586
   -1.0599    3.8765   -1.1196
   -2.7767    3.4276   -1.0256
   -1.9273    4.0003    0.4263
    0.0124   -0.0330    0.6778
    2.2404    2.8477    1.0855
    4.4162    2.7397    2.2742
    5.0745    0.6713    3.4805
    3.5241   -1.2528    3.5859
    2.2015   -2.6693    3.4482
   -0.0326   -3.7677    1.8785
   -0.4156   -3.5145    3.5951
    3.1644   -4.3535    3.6138
    3.4314   -7.0975    4.0721
    1.0545   -8.0939    3.6896
@<BUDE>CONF  48
   -3.2265   -0.7670   -6.0341
   -3.2776    0.3663   -5.0136
   -1.9610    0.4398   -4.2779
   -1.2781    1.4610   -4.3380
   -1.5393   -0.6006   -3.5646
   -0.2577   -0.5291   -2.8485
   -0.4249    0.3055   -1.6012
   -0.3019   -0.1971   -0.5241
   -0.7134    1.6203   -1.7031
   -0.8625    2.3699   -0.4945
   -1.2562    3.8055   -0.8303
    0.4452    2.3710    0.2606
    0.9778    3.4362    0.5680
    1.0215    1.2195    0.5933
    2.2469    1.2189    1.3007
    3.0971    2.3309    1.2820
    4.3227    2.2671    1.9557
    4.6918    1.1026    2.6411
    3.8227    0.0061    2.6870
    2.6040    0.0601    2.0003
    1.6422   -1.0638    1.9514
    0.5938   -0.9484    1.3186
    1.9121   -2.1978    2.5918
    0.9568   -3.3140    2.5433
   -0.2281   -3.0000    3.4249
   -1.4426   -2.6129    3.0117
   -2.1951   -2.4509    4.2759
   -1.3149   -2.7776    5.2261
   -0.0384   -3.1350    4.7983
   -3.0575   -1.7105   -5.5193
   -4.1704   -0.8114   -6.5734
   -2.4152   -0.5858   -6.7360
   -4.0796    0.1792   -4.3026
   -3.4590    1.3088   -5.5261
   -2.0993   -1.4397   -3.5146
    0.0610   -1.5322   -2.5729
    0.4927   -0.0734   -3.4911
   -1.6358    1.9157    0.1216
   -0.4881    4.2544   -1.4566
   -2.2049    3.8055   -1.3626
   -1.3555    4.3782    0.0893
    0.5842    0.3449    0.3408
    2.8122    3.2256    0.7485
    4.9880    3.1176    1.9372
    5.6463    1.0492    3.1435
    4.0959   -0.8749    3.2489
    2.7733   -2.2914    3.1112
    1.4422   -4.2215    2.8964
    0.6196   -3.4576    1.5190
   -1.8128   -2.4505    2.0103
   -3.2231   -2.1456    4.4037
   -1.5313   -2.7707    6.2842
@<BUDE>CONF  49
    0.5625   -1.7307   -2.2770
   -0.5399   -1.8795   -3.3216
   -1.1387   -0.5250   -3.6167
   -2.3323   -0.3194   -3.4024
   -0.3749    0.4463   -4.1087
   -0.9577    1.7648   -4.3959
   -1.1510    2.5210   -3.1033
   -0.5279    3.5192   -2.8952
   -2.0286    2.0693   -2.1823
   -2.1777    2.8189   -0.9737
   -2.5714    4.2545   -1.3095
   -0.8700    2.8200   -0.2186
   -0.3374    3.8852    0.0888
   -0.2937    1.6685    0.1141
    0.9317    1.6679    0.8215
    1.7819    2.7799    0.8028
    3.0075    2.7161    1.4765
    3.3766    1.5516    2.1619
    2.5075    0.4551    2.2078
    1.2888    0.5091    1.5211
    0.3270   -0.6148    1.4722
   -0.7214   -0.4994    0.8394
    0.5969   -1.7488    2.1126
   -0.3584   -2.8650    2.0641
   -0.0951   -3.8021    3.2184
    0.8490   -3.6561    4.1581
    0.6535   -4.8417    5.0223
   -0.3752   -5.4874    4.4661
   -0.9206   -4.9198    3.3168
    0.1401   -1.3249   -1.3601
    1.0029   -2.7046   -2.0742
    1.3290   -1.0565   -2.6533
   -1.3141   -2.5424   -2.9408
   -0.1210   -2.2969   -4.2349
    0.6054    0.2785   -4.2851
   -0.2883    2.3242   -5.0460
   -1.9196    1.6374   -4.8882
   -2.9510    2.3647   -0.3576
   -1.8033    4.7034   -1.9358
   -3.5201    4.2545   -1.8418
   -2.6707    4.8272   -0.3899
   -0.7310    0.7939   -0.1384
    1.4970    3.6746    0.2693
    3.6728    3.5666    1.4580
    4.3311    1.4982    2.6643
    2.7807   -0.4259    2.7697
    1.4581   -1.8424    2.6320
   -0.2399   -3.4024    1.1255
   -1.3723   -2.4771    2.1350
    1.5859   -2.8765    4.2823
    1.2091   -5.1201    5.9055
   -0.7914   -6.4092    4.8446
@<BUDE>CONF  50
   -1.4538   -2.7211   -2.7321
   -0.3719   -1.7970   -3.2837
   -0.9707   -0.4425   -3.5788
   -2.1643   -0.2369   -3.3645
   -0.2069    0.5288   -4.0708
   -0.7897    1.8473   -4.3580
   -0.9830    2.6035   -3.0654
   -0.3599    3.6017   -2.8573
   -1.8606    2.1518   -2.1444
   -2.0097    2.9014   -0.9358
   -2.4034    4.3370   -1.2716
   -0.7020    2.9025   -0.1807
   -0.1694    3.9677    0.1267
   -0.1257    1.7510    0.1520
    1.0997    1.7504    0.8594
    1.9499    2.8624    0.8407
    3.1755    2.7986    1.5144
    3.5446    1.6341    2.1998
    2.6755    0.5376    2.2457
    1.4568    0.5916    1.5590
    0.4950   -0.5323    1.5101
   -0.5534   -0.4169    0.8773
    0.7649   -1.6663    2.1505
   -0.1904   -2.7825    2.1020
    0.0729   -3.7196    3.2563
    1.0170   -3.5736    4.1960
    0.8215   -4.7592    5.0602
   -0.2072   -5.4049    4.5040
   -0.7526   -4.8373    3.3547
   -2.2421   -2.8382   -3.4728
   -1.0195   -3.6929   -2.5070
   -1.8698   -2.2899   -1.8240
    0.0350   -2.2202   -4.1996
    0.4230   -1.6891   -2.5487
    0.7734    0.3610   -4.2472
   -0.1203    2.4067   -5.0081
   -1.7516    1.7199   -4.8503
   -2.7830    2.4472   -0.3197
   -1.6353    4.7859   -1.8979
   -3.3521    4.3370   -1.8039
   -2.5027    4.9097   -0.3520
   -0.5630    0.8764   -0.1005
    1.6650    3.7571    0.3072
    3.8408    3.6491    1.4959
    4.4991    1.5807    2.7022
    2.9487   -0.3434    2.8076
    1.6261   -1.7599    2.6699
   -0.0719   -3.3199    1.1634
   -1.2043   -2.3946    2.1729
    1.7539   -2.7940    4.3202
    1.3771   -5.0376    5.9434
   -0.6234   -6.3267    4.8825
