@<TRIPOS>MOLECULE
ZINC61282005
   37    37     0     0     0
SMALL
USER_CHARGES

@<TRIPOS>ATOM
      1 C1         -0.0946    6.0941   -2.7487 C.3       1 <0>        -0.1160
      2 C2         -0.0741    4.5872   -2.7570 C.ar      1 <0>        -0.0986
      3 C3         -0.0705    3.9035   -3.9601 C.ar      1 <0>        -0.0818
      4 C4         -0.0518    2.5202   -3.9769 C.ar      1 <0>        -0.1283
      5 C5         -0.0371    1.8130   -2.7924 C.ar      1 <0>        -0.0643
      6 C6         -0.0406    2.4964   -1.5750 C.ar      1 <0>        -0.1243
      7 C7         -0.0534    3.8928   -1.5655 C.ar      1 <0>        -0.0546
      8 C8         -0.0249    1.7459   -0.3027 C.2       1 <0>         0.5131
      9 O1         -0.0280    2.3433    0.7549 O.2       1 <0>        -0.5029
     10 O2         -0.0070    0.3990   -0.3155 O.3       1 <0>        -0.3246
     11 C9          0.0075   -0.2617    0.9516 C.3       1 <0>         0.0501
     12 C10         0.0264   -1.7536    0.7400 C.2       1 <0>         0.5179
     13 O3          0.0273   -2.2066   -0.3850 O.2       1 <0>        -0.5155
     14 N1          0.0422   -2.5846    1.8010 N.am      1 <0>        -0.6088
     15 C11         0.0411   -2.0374    3.1600 C.3       1 <0>         0.0676
     16 C12         0.0605   -4.0349    1.5953 C.3       1 <0>         0.1305
     17 C13         1.3206   -4.6245    2.2322 C.3       1 <0>        -0.1630
     18 C14        -1.1776   -4.6577    2.2435 C.3       1 <0>        -0.1617
     19 H1          0.9280    6.4714   -2.7564 H         1 <0>         0.0743
     20 H2         -0.6217    6.4552   -3.6318 H         1 <0>         0.0707
     21 H3         -0.6048    6.4456   -1.8519 H         1 <0>         0.0700
     22 H4         -0.0827    4.4522   -4.8903 H         1 <0>         0.1310
     23 H5         -0.0491    1.9928   -4.9194 H         1 <0>         0.1343
     24 H6         -0.0232    0.7332   -2.8068 H         1 <0>         0.1416
     25 H7         -0.0518    4.4277   -0.6273 H         1 <0>         0.1381
     26 H8          0.8961    0.0377    1.5073 H         1 <0>         0.1010
     27 H9         -0.8837    0.0141    1.5154 H         1 <0>         0.1011
     28 H10        -0.9867   -1.9154    3.5017 H         1 <0>         0.0629
     29 H11         0.5671   -2.7204    3.8271 H         1 <0>         0.0807
     30 H12         0.5422   -1.0694    3.1623 H         1 <0>         0.0734
     31 H13         0.0586   -4.2504    0.5269 H         1 <0>         0.1038
     32 H14         1.3226   -4.4090    3.3007 H         1 <0>         0.0602
     33 H15         1.3343   -5.7036    2.0791 H         1 <0>         0.0720
     34 H16         2.2027   -4.1808    1.7704 H         1 <0>         0.0599
     35 H17        -1.1640   -5.7368    2.0905 H         1 <0>         0.0713
     36 H18        -1.1756   -4.4421    3.3120 H         1 <0>         0.0596
     37 H19        -2.0753   -4.2377    1.7898 H         1 <0>         0.0594
@<TRIPOS>BOND
     1    1    2 1
     2    1   19 1
     3    1   20 1
     4    1   21 1
     5    2    7 ar
     6    2    3 ar
     7    3    4 ar
     8    3   22 1
     9    4    5 ar
    10    4   23 1
    11    5    6 ar
    12    5   24 1
    13    6    7 ar
    14    6    8 1
    15    7   25 1
    16    8    9 2
    17    8   10 1
    18   10   11 1
    19   11   12 1
    20   11   26 1
    21   11   27 1
    22   12   13 2
    23   12   14 am
    24   14   15 1
    25   14   16 1
    26   15   28 1
    27   15   29 1
    28   15   30 1
    29   16   17 1
    30   16   18 1
    31   16   31 1
    32   17   32 1
    33   17   33 1
    34   17   34 1
    35   18   35 1
    36   18   36 1
    37   18   37 1
@<BUDE>CONF  1
   -3.9295    2.6353   -4.1208
   -2.8238    2.4291   -3.1135
   -1.8494    3.4147   -2.9166
   -0.8243    3.2262   -1.9855
   -0.7666    2.0402   -1.2438
   -1.7317    1.0422   -1.4237
   -2.7526    1.2526   -2.3582
   -1.6674   -0.2088   -0.6356
   -2.4934   -1.0580   -0.7925
   -0.6748   -0.3909    0.2613
   -0.6540   -1.6155    0.9994
    0.5276   -1.6155    1.9394
    0.3452   -1.6155    3.1558
    1.7655   -1.6155    1.4531
    1.9835   -1.6155   -0.0007
    2.9147   -1.6155    2.3696
    2.8733   -0.3600    3.2359
    2.8529   -2.8522    3.2614
   -4.8165    2.0927   -3.8008
   -3.6080    2.2653   -5.0921
   -4.1593    3.6962   -4.1940
   -1.8765    4.3381   -3.4762
   -0.0752    3.9905   -1.8398
    0.0347    1.9095   -0.5316
   -3.5053    0.4903   -2.4952
   -0.5686   -2.4534    0.3106
   -1.5734   -1.7095    1.5735
    1.5413   -0.7203   -0.4330
    3.0517   -1.6289   -0.2065
    1.5184   -2.4972   -0.4365
    3.8374   -1.6289    1.7933
    1.9560   -0.3540    3.8210
    3.7311   -0.3534    3.9051
    2.9032    0.5210    2.5982
    2.8952   -3.7466    2.6434
    1.9233   -2.8448    3.8267
    3.6962   -2.8453    3.9488
@<BUDE>CONF  2
   -0.1758    4.1568   -2.0121
   -1.2156    3.0803   -2.2112
   -2.2495    3.2543   -3.1388
   -3.2139    2.2599   -3.3246
   -3.1500    1.0791   -2.5752
   -2.1236    0.8837   -1.6435
   -1.1652    1.8902   -1.4757
   -2.0593   -0.3673   -0.8554
   -2.8853   -1.2165   -1.0123
   -1.0667   -0.5494    0.0415
   -1.0459   -1.7740    0.7796
    0.1357   -1.7740    1.7196
   -0.0467   -1.7740    2.9360
    1.3736   -1.7740    1.2333
    1.5916   -1.7740   -0.2205
    2.5228   -1.7740    2.1498
    2.4814   -0.5185    3.0161
    2.4610   -3.0107    3.0416
    0.7625    3.7010   -1.7031
   -0.5138    4.8488   -1.2436
   -0.0282    4.6947   -2.9461
   -2.3163    4.1563   -3.7291
   -4.0095    2.4017   -4.0411
   -3.9057    0.3229   -2.7288
   -0.3657    1.7418   -0.7649
   -0.9605   -2.6119    0.0908
   -1.9653   -1.8680    1.3537
    1.1494   -0.8788   -0.6528
    2.6598   -1.7874   -0.4263
    1.1265   -2.6557   -0.6563
    3.4455   -1.7874    1.5735
    1.5641   -0.5125    3.6012
    3.3392   -0.5119    3.6853
    2.5113    0.3625    2.3784
    2.5033   -3.9051    2.4236
    1.5314   -3.0033    3.6069
    3.3043   -3.0038    3.7290
@<BUDE>CONF  3
   -1.8273    5.1057   -0.0810
   -1.6405    3.8166   -0.8445
   -1.4947    3.8305   -2.2368
   -1.3224    2.6387   -2.9462
   -1.2984    1.4178   -2.2615
   -1.4406    1.3812   -0.8693
   -1.6078    2.5865   -0.1771
   -1.4123    0.0881   -0.1500
   -1.5341    0.0618    1.0385
   -1.2488   -1.0626   -0.8370
   -1.2280   -2.2872   -0.0989
   -0.0464   -2.2872    0.8411
   -0.2288   -2.2872    2.0575
    1.1915   -2.2872    0.3548
    1.4095   -2.2872   -1.0990
    2.3407   -2.2872    1.2713
    2.2993   -1.0317    2.1376
    2.2789   -3.5239    2.1631
   -1.4169    4.9959    0.9206
   -2.8884    5.3370   -0.0154
   -1.3111    5.9113   -0.5988
   -1.5077    4.7612   -2.7845
   -1.2119    2.6569   -4.0204
   -1.1684    0.5063   -2.8259
   -1.7091    2.5658    0.8980
   -1.1426   -3.1251   -0.7877
   -2.1474   -2.3812    0.4752
    0.9673   -1.3920   -1.5313
    2.4777   -2.3006   -1.3048
    0.9444   -3.1689   -1.5348
    3.2634   -2.3006    0.6950
    1.3820   -1.0257    2.7227
    3.1571   -1.0251    2.8068
    2.3292   -0.1507    1.4999
    2.3212   -4.4183    1.5451
    1.3493   -3.5165    2.7284
    3.1222   -3.5170    2.8505
@<BUDE>CONF  4
   -1.2393   -2.9183   -4.0436
   -1.3886   -2.8822   -2.5416
   -1.5572   -4.0673   -1.8159
   -1.6965   -4.0368   -0.4255
   -1.6712   -2.8110    0.2502
   -1.5020   -1.6140   -0.4558
   -1.3599   -1.6668   -1.8475
   -1.4737   -0.3209    0.2635
   -1.5955   -0.2946    1.4520
   -1.3102    0.8298   -0.4235
   -1.2894    2.0544    0.3146
   -0.1078    2.0544    1.2546
   -0.2902    2.0544    2.4710
    1.1301    2.0544    0.7683
    1.3481    2.0544   -0.6855
    2.2793    2.0544    1.6848
    2.2379    3.3099    2.5511
    2.2175    0.8177    2.5766
   -0.6322   -2.0755   -4.3674
   -2.2219   -2.8572   -4.5067
   -0.7564   -3.8479   -4.3372
   -1.5772   -5.0239   -2.3168
   -1.8275   -4.9551    0.1276
   -1.7843   -2.8056    1.3242
   -1.2201   -0.7476   -2.3970
   -2.2088    2.1484    0.8887
   -1.2040    2.8923   -0.3742
    0.9059    2.9496   -1.1178
    2.4163    2.0410   -0.8913
    0.8830    1.1727   -1.1213
    3.2020    2.0410    1.1085
    1.3206    3.3159    3.1362
    3.0957    3.3165    3.2203
    2.2678    4.1909    1.9134
    2.2598   -0.0767    1.9586
    1.2879    0.8251    3.1419
    3.0608    0.8246    3.2640
@<BUDE>CONF  5
   -3.9545    2.6776   -3.4602
   -2.8488    2.4714   -2.4529
   -1.8744    3.4570   -2.2560
   -0.8493    3.2685   -1.3249
   -0.7916    2.0825   -0.5832
   -1.7567    1.0845   -0.7631
   -2.7776    1.2949   -1.6976
   -1.6924   -0.1665    0.0250
   -2.5184   -1.0157   -0.1319
   -0.6998   -0.3486    0.9219
   -0.6790   -1.5732    1.6600
    0.5026   -1.5732    2.6000
    0.3202   -1.5732    3.8164
    1.7405   -1.5732    2.1137
    2.8897   -1.5732    3.0302
    1.9585   -1.5732    0.6599
    3.0400   -0.5557    0.3087
    2.4021   -2.9632    0.2130
   -4.8415    2.1350   -3.1402
   -3.6330    2.3076   -4.4315
   -4.1843    3.7385   -3.5334
   -1.9015    4.3804   -2.8156
   -0.1002    4.0328   -1.1792
    0.0097    1.9518    0.1290
   -3.5303    0.5326   -1.8346
   -0.5936   -2.4111    0.9712
   -1.5984   -1.6672    2.2341
    2.8602   -2.4684    3.6479
    3.8124   -1.5598    2.4539
    2.8457   -0.6915    3.6660
    1.0321   -1.3076    0.1550
    3.9692   -0.8293    0.8043
    3.1920   -0.5462   -0.7685
    2.7287    0.4326    0.6404
    1.6248   -3.6857    0.4527
    3.3209   -3.2333    0.7293
    2.5763   -2.9597   -0.8609
@<BUDE>CONF  6
   -0.2008    4.1990   -1.3514
   -1.2406    3.1225   -1.5505
   -2.2745    3.2965   -2.4781
   -3.2389    2.3021   -2.6639
   -3.1750    1.1213   -1.9145
   -2.1486    0.9259   -0.9828
   -1.1902    1.9324   -0.8150
   -2.0843   -0.3251   -0.1947
   -2.9103   -1.1743   -0.3516
   -1.0917   -0.5072    0.7022
   -1.0709   -1.7318    1.4403
    0.1107   -1.7318    2.3803
   -0.0717   -1.7318    3.5967
    1.3486   -1.7318    1.8940
    2.4978   -1.7318    2.8105
    1.5666   -1.7318    0.4402
    2.6481   -0.7143    0.0890
    2.0102   -3.1218   -0.0067
    0.7375    3.7432   -1.0424
   -0.5388    4.8910   -0.5829
   -0.0532    4.7369   -2.2854
   -2.3413    4.1985   -3.0684
   -4.0345    2.4439   -3.3804
   -3.9307    0.3651   -2.0681
   -0.3907    1.7840   -0.1042
   -0.9855   -2.5697    0.7515
   -1.9903   -1.8258    2.0144
    2.4683   -2.6270    3.4282
    3.4205   -1.7184    2.2342
    2.4538   -0.8501    3.4463
    0.6402   -1.4662   -0.0647
    3.5773   -0.9879    0.5846
    2.8001   -0.7048   -0.9882
    2.3368    0.2740    0.4207
    1.2329   -3.8443    0.2330
    2.9290   -3.3919    0.5096
    2.1844   -3.1183   -1.0806
@<BUDE>CONF  7
   -1.8523    5.1480    0.5796
   -1.6655    3.8589   -0.1839
   -1.5197    3.8728   -1.5762
   -1.3474    2.6810   -2.2856
   -1.3234    1.4601   -1.6009
   -1.4656    1.4235   -0.2087
   -1.6328    2.6288    0.4835
   -1.4373    0.1304    0.5106
   -1.5591    0.1041    1.6991
   -1.2738   -1.0203   -0.1764
   -1.2530   -2.2449    0.5617
   -0.0714   -2.2449    1.5017
   -0.2538   -2.2449    2.7181
    1.1665   -2.2449    1.0154
    2.3157   -2.2449    1.9319
    1.3845   -2.2449   -0.4384
    2.4660   -1.2274   -0.7896
    1.8281   -3.6349   -0.8853
   -1.4419    5.0382    1.5812
   -2.9134    5.3793    0.6452
   -1.3361    5.9536    0.0618
   -1.5327    4.8035   -2.1239
   -1.2369    2.6992   -3.3598
   -1.1934    0.5486   -2.1653
   -1.7341    2.6081    1.5586
   -1.1676   -3.0828   -0.1271
   -2.1724   -2.3389    1.1358
    2.2862   -3.1401    2.5496
    3.2384   -2.2315    1.3556
    2.2717   -1.3632    2.5677
    0.4581   -1.9793   -0.9433
    3.3952   -1.5010   -0.2940
    2.6180   -1.2179   -1.8668
    2.1547   -0.2391   -0.4579
    1.0508   -4.3574   -0.6456
    2.7469   -3.9050   -0.3690
    2.0023   -3.6314   -1.9592
@<BUDE>CONF  8
   -1.2511    2.9575   -3.3817
   -1.4090    2.9207   -1.8805
   -1.5810    4.1056   -1.1552
   -1.7266    4.0746    0.2345
   -1.6971    2.8491    0.9107
   -1.5279    1.6521    0.2047
   -1.3882    1.7047   -1.1872
   -1.4996    0.3590    0.9240
   -1.6214    0.3327    2.1125
   -1.3361   -0.7917    0.2370
   -1.3153   -2.0163    0.9751
   -0.1337   -2.0163    1.9151
   -0.3161   -2.0163    3.1315
    1.1042   -2.0163    1.4288
    2.2534   -2.0163    2.3453
    1.3222   -2.0163   -0.0250
    2.4037   -0.9988   -0.3762
    1.7658   -3.4063   -0.4719
   -1.6389    2.0353   -3.8092
   -0.1973    3.0591   -3.6325
   -1.8034    3.8045   -3.7831
   -1.6092    5.0615   -1.6570
   -1.8575    4.9929    0.7877
   -1.8070    2.8439    1.9850
   -1.2663    0.7841   -1.7386
   -1.2299   -2.8542    0.2863
   -2.2347   -2.1103    1.5492
    2.2239   -2.9115    2.9630
    3.1761   -2.0029    1.7690
    2.2094   -1.1346    2.9811
    0.3958   -1.7507   -0.5299
    3.3329   -1.2724    0.1194
    2.5557   -0.9893   -1.4534
    2.0924   -0.0105   -0.0445
    0.9885   -4.1288   -0.2322
    2.6846   -3.6764    0.0444
    1.9400   -3.4028   -1.5458
@<BUDE>CONF  9
   -1.8381   -5.1530    0.5812
   -1.6598   -3.8633   -0.1833
   -1.5175   -3.8768   -1.5758
   -1.3514   -2.6845   -2.2860
   -1.3233   -1.4640   -1.6008
   -1.4655   -1.4274   -0.2086
   -1.6351   -2.6325    0.4834
   -1.4372   -0.1343    0.5107
   -1.5590   -0.1080    1.6992
   -1.2737    1.0164   -0.1763
   -1.2529    2.2410    0.5618
   -0.0713    2.2410    1.5018
   -0.2537    2.2410    2.7182
    1.1666    2.2410    1.0155
    2.3158    2.2410    1.9320
    1.3846    2.2410   -0.4383
    1.7921    3.6402   -0.8906
    2.4921    1.2505   -0.7856
   -2.4226   -4.9638    1.4791
   -0.8628   -5.5470    0.8591
   -2.3572   -5.8759   -0.0446
   -1.5387   -4.8069   -2.1244
   -1.2409   -2.7028   -3.3601
   -1.1901   -0.5527   -2.1649
   -1.7543   -2.6103    1.5565
   -2.1723    2.3350    1.1359
   -1.1675    3.0789   -0.1270
    2.2863    1.3458    2.5497
    3.2385    2.2544    1.3557
    2.2718    3.1227    2.5678
    0.4654    1.9496   -0.9421
    2.7180    3.9254   -0.3955
    1.9405    3.6434   -1.9683
    1.0078    4.3477   -0.6298
    2.1950    0.2513   -0.4739
    3.4070    1.5349   -0.2700
    2.6627    1.2602   -1.8601
