#        1GCZ_R01_S0001_C0000_L00003_S0001_C0047_G0010_E0001.mol2
#        Tue Jun  6 14:05:02 2017
#        Descriptor:      5    15     8     8    10    13
#        Energy - RMSD - RMSD MassCentre:     -62.2938    999.9999    999.9999
#        Receptor:       1  Surface Point:     1  Conformer:     0
#        Ligand:         3  Surface Point:     1  Conformer:    47
#        BUDE Formal Charge: 0
#        ATOM Count: 58
#        Heavy ATOM Count: 30
@<TRIPOS>MOLECULE
ZINC61580633_1GCZ_R01_S0001_C0000_L00003_S0001_C0047_G0010_E0001
 58 59 0 0 0
SMALL
USER_CHARGES
@<TRIPOS>ATOM
       1 C1        -0.1256    0.7441   -4.2138 C.3       1 <0>        -0.1532 
       2 C2        -0.1510    1.3547   -2.8156 C.3       1 <0>        -0.1224 
       3 C3         1.1683    1.0542   -2.1056 C.3       1 <0>        -0.1198 
       4 C4         1.3463   -0.4584   -1.9818 C.3       1 <0>         0.0610 
       5 O1         0.3004   -0.9954   -1.1677 O.3       1 <0>        -0.3878 
       6 C5         0.3165   -0.4478    0.1533 C.3       1 <0>         0.0487 
       7 C6        -0.8204   -1.0590    0.9708 C.3       1 <0>         0.1244 
       8 N1        -0.8039   -0.4962    2.3286 N.am      1 <0>        -0.7216 
       9 C7        -1.1815    0.7631    2.5307 C.2       1 <0>         0.5161 
      10 O2        -1.5446    1.4568    1.5823 O.2       1 <0>        -0.5151 
      11 C8        -1.1645    1.3413    3.9255 C.3       1 <0>         0.0490 
      12 O3         0.1891    1.5020    4.3576 O.3       1 <0>        -0.3194 
      13 C9         0.4045    2.0100    5.5896 C.2       1 <0>         0.5417 
      14 O4        -0.5405    2.3166    6.2977 O.2       1 <0>        -0.5337 
      15 C10        1.7878    2.1952    6.0817 C.2       1 <0>        -0.2559 
      16 C11        3.0029    1.8449    5.3127 C.2       1 <0>        -0.0791 
      17 C12        4.1247    2.0989    5.9904 C.2       1 <0>        -0.2585 
      18 S1         3.8139    2.7804    7.5940 S.3       1 <0>         0.3028 
      19 C13        2.0720    2.6936    7.2926 C.2       1 <0>         0.0893 
      20 N2         1.0936    3.0722    8.1736 N.am      1 <0>        -0.6099 
      21 C14        1.4238    3.5618    9.3653 C.2       1 <0>         0.5551 
      22 O5         2.6083    3.6749    9.6766 O.2       1 <0>        -0.4939 
      23 C15        0.3656    3.9705   10.3159 C.ar      1 <0>        -0.1466 
      24 C16        0.7579    4.4778   11.5604 C.ar      1 <0>        -0.0772 
      25 C17       -0.1961    4.8120   12.5290 C.ar      1 <0>        -0.1241 
      26 C18       -1.5610    4.6353   12.2744 C.ar      1 <0>        -0.0446 
      27 C19       -1.9586    4.1785   11.0121 C.ar      1 <0>        -0.1261 
      28 C20       -1.0026    3.8730   10.0360 C.ar      1 <0>        -0.0460 
      29 C21       -2.5709    4.9430   13.3542 C.3       1 <0>        -0.0928 
      30 C22       -2.8269    3.6874   14.1826 C.3       1 <0>        -0.1485 
      31 H1        -0.0051   -0.3344   -4.1358 H         1 <0>         0.0567 
      32 H2         0.7061    1.1627   -4.7766 H         1 <0>         0.0554 
      33 H3        -1.0595    0.9694   -4.7242 H         1 <0>         0.0557 
      34 H4        -0.2840    2.4318   -2.8919 H         1 <0>         0.0632 
      35 H5        -0.9738    0.9264   -2.2470 H         1 <0>         0.0635 
      36 H6         1.9930    1.4699   -2.6804 H         1 <0>         0.0711 
      37 H7         1.1563    1.4998   -1.1131 H         1 <0>         0.0704 
      38 H8         1.3042   -0.9112   -2.9703 H         1 <0>         0.0498 
      39 H9         2.3091   -0.6746   -1.5236 H         1 <0>         0.0505 
      40 H10        0.1855    0.6310    0.1010 H         1 <0>         0.0584 
      41 H11        1.2680   -0.6755    0.6294 H         1 <0>         0.0702 
      42 H12       -0.6901   -2.1377    1.0246 H         1 <0>         0.0872 
      43 H13       -1.7724   -0.8312    0.4962 H         1 <0>         0.0805 
      44 H14       -0.5059   -1.0649    3.1083 H         1 <0>         0.4058 
      45 H15       -1.6612    2.3093    3.9237 H         1 <0>         0.1008 
      46 H16       -1.6836    0.6678    4.6043 H         1 <0>         0.0999 
      47 H17        2.9631    1.4416    4.3117 H         1 <0>         0.1557 
      48 H18        5.1083    1.9151    5.5842 H         1 <0>         0.1929 
      49 H19        0.1209    2.9794    7.9181 H         1 <0>         0.4317 
      50 H20        1.8071    4.6094   11.7797 H         1 <0>         0.1287 
      51 H21        0.1182    5.2083   13.4831 H         1 <0>         0.1326 
      52 H22       -3.0121    4.0692   10.8011 H         1 <0>         0.1342 
      53 H23       -1.3699    3.5821    9.0629 H         1 <0>         0.1410 
      54 H24       -3.5013    5.2723   12.8964 H         1 <0>         0.0777 
      55 H25       -2.1841    5.7304   13.9977 H         1 <0>         0.0771 
      56 H26       -1.8983    3.3664   14.6499 H         1 <0>         0.0623 
      57 H27       -3.2003    2.8965   13.5354 H         1 <0>         0.0572 
      58 H28       -3.5644    3.9057   14.9521 H         1 <0>         0.0578 
@<TRIPOS>BOND
       1        1        2 1        
       2        1       31 1        
       3        1       32 1        
       4        1       33 1        
       5        2        3 1        
       6        2       34 1        
       7        2       35 1        
       8        3        4 1        
       9        3       36 1        
      10        3       37 1        
      11        4        5 1        
      12        4       38 1        
      13        4       39 1        
      14        5        6 1        
      15        6        7 1        
      16        6       40 1        
      17        6       41 1        
      18        7        8 1        
      19        7       42 1        
      20        7       43 1        
      21        8        9 am       
      22        8       44 1        
      23        9       10 2        
      24        9       11 1        
      25       11       12 1        
      26       11       45 1        
      27       11       46 1        
      28       12       13 1        
      29       13       14 2        
      30       13       15 1        
      31       15       19 2        
      32       15       16 1        
      33       16       17 2        
      34       16       47 1        
      35       17       18 1        
      36       17       48 1        
      37       18       19 1        
      38       19       20 1        
      39       20       21 am       
      40       20       49 1        
      41       21       22 2        
      42       21       23 1        
      43       23       28 ar       
      44       23       24 ar       
      45       24       25 ar       
      46       24       50 1        
      47       25       26 ar       
      48       25       51 1        
      49       26       27 ar       
      50       26       29 1        
      51       27       28 ar       
      52       27       52 1        
      53       28       53 1        
      54       29       30 1        
      55       29       54 1        
      56       29       55 1        
      57       30       56 1        
      58       30       57 1        
      59       30       58 1        

