@<TRIPOS>MOLECULE
ZINC61282011
   54    56     0     0     0
SMALL
USER_CHARGES

@<TRIPOS>ATOM
      1 C1          4.4549    0.6291    8.9855 C.3       1 <0>        -0.1394
      2 C2          3.7113    1.5442    8.0106 C.3       1 <0>        -0.1416
      3 C3          3.0812    0.7132    6.9228 C.2       1 <0>         0.5168
      4 O1          3.2139   -0.4923    6.9268 O.2       1 <0>        -0.5327
      5 N1          2.3703    1.3096    5.9454 N.am      1 <0>        -0.7288
      6 C4          1.7578    0.5017    4.8878 C.3       1 <0>         0.1281
      7 C5          1.0254    1.4031    3.9276 C.2       1 <0>         0.4647
      8 O2          1.0159    2.5977    4.1080 O.2       1 <0>        -0.5000
      9 O3          0.3835    0.8787    2.8717 O.3       1 <0>        -0.3169
     10 C6         -0.2898    1.7918    2.0028 C.3       1 <0>         0.0729
     11 C7         -1.7283    1.9885    2.4854 C.3       1 <0>        -0.1704
     12 C8         -0.3014    1.2364    0.6020 C.2       1 <0>         0.5166
     13 O4          0.1346    0.1252    0.3865 O.2       1 <0>        -0.4890
     14 N2         -0.7962    1.9743   -0.4115 N.am      1 <0>        -0.6633
     15 C9         -0.7192    1.4987   -1.7270 C.ar      1 <0>         0.1513
     16 C10        -0.5095    2.3854   -2.7747 C.ar      1 <0>        -0.1318
     17 C11        -0.4323    1.9177   -4.0726 C.ar      1 <0>        -0.0823
     18 C12        -0.5639    0.5633   -4.3325 C.ar      1 <0>         0.0206
     19 C13        -0.7746   -0.3287   -3.2834 C.ar      1 <0>         0.0545
     20 C14        -0.8468    0.1403   -1.9825 C.ar      1 <0>        -0.1051
     21 O5         -0.8687   -1.5918   -3.7954 O.3       1 <0>        -0.2879
     22 C15        -1.1066   -1.4170   -5.1996 C.3       1 <0>         0.2651
     23 O6         -0.5268   -0.1405   -5.5037 O.3       1 <0>        -0.2965
     24 C16        -2.6043   -1.4030   -5.4861 C.3       1 <0>        -0.1489
     25 C17        -3.2072   -2.7623   -5.1218 C.3       1 <0>        -0.1151
     26 C18        -2.5248   -3.8577   -5.9437 C.3       1 <0>        -0.1246
     27 C19        -1.0269   -3.8740   -5.6322 C.3       1 <0>        -0.1168
     28 C20        -0.4161   -2.5184   -5.9966 C.3       1 <0>        -0.1129
     29 H1          3.7527   -0.0771    9.4285 H         1 <0>         0.0628
     30 H2          5.2312    0.0823    8.4503 H         1 <0>         0.0629
     31 H3          4.9106    1.2302    9.7724 H         1 <0>         0.0642
     32 H4          2.9350    2.0910    8.5458 H         1 <0>         0.0966
     33 H5          4.4135    2.2505    7.5677 H         1 <0>         0.0967
     34 H6          2.2642    2.2738    5.9421 H         1 <0>         0.4129
     35 H7          2.5342   -0.0451    4.3526 H         1 <0>         0.1177
     36 H8          1.0556   -0.2045    5.3307 H         1 <0>         0.1174
     37 H9          0.2298    2.7499    2.0095 H         1 <0>         0.1170
     38 H10        -2.2480    1.0303    2.4788 H         1 <0>         0.0784
     39 H11        -1.7200    2.3902    3.4986 H         1 <0>         0.0805
     40 H12        -2.2419    2.6850    1.8227 H         1 <0>         0.0845
     41 H13        -1.2057    2.8347   -0.2300 H         1 <0>         0.4164
     42 H14        -0.4064    3.4417   -2.5749 H         1 <0>         0.1427
     43 H15        -0.2694    2.6094   -4.8860 H         1 <0>         0.1415
     44 H16        -1.0063   -0.5501   -1.1674 H         1 <0>         0.1512
     45 H17        -3.0806   -0.6234   -4.8916 H         1 <0>         0.0736
     46 H18        -2.7697   -1.2044   -6.5450 H         1 <0>         0.0900
     47 H19        -3.0536   -2.9554   -4.0601 H         1 <0>         0.0715
     48 H20        -4.2752   -2.7564   -5.3397 H         1 <0>         0.0728
     49 H21        -2.9587   -4.8250   -5.6906 H         1 <0>         0.0706
     50 H22        -2.6727   -3.6603   -7.0054 H         1 <0>         0.0661
     51 H23        -0.8788   -4.0654   -4.5694 H         1 <0>         0.0735
     52 H24        -0.5432   -4.6587   -6.2138 H         1 <0>         0.0762
     53 H25        -0.5508   -2.3342   -7.0625 H         1 <0>         0.0928
     54 H26         0.6481   -2.5244   -5.7610 H         1 <0>         0.0829
@<TRIPOS>BOND
     1    1    2 1
     2    1   29 1
     3    1   30 1
     4    1   31 1
     5    2    3 1
     6    2   32 1
     7    2   33 1
     8    3    4 2
     9    3    5 am
    10    5    6 1
    11    5   34 1
    12    6    7 1
    13    6   35 1
    14    6   36 1
    15    7    8 2
    16    7    9 1
    17    9   10 1
    18   10   11 1
    19   10   12 1
    20   10   37 1
    21   11   38 1
    22   11   39 1
    23   11   40 1
    24   12   13 2
    25   12   14 am
    26   14   15 1
    27   14   41 1
    28   15   20 ar
    29   15   16 ar
    30   16   17 ar
    31   16   42 1
    32   17   18 ar
    33   17   43 1
    34   18   23 1
    35   18   19 ar
    36   19   20 ar
    37   19   21 1
    38   20   44 1
    39   21   22 1
    40   22   28 1
    41   22   23 1
    42   22   24 1
    43   24   25 1
    44   24   45 1
    45   24   46 1
    46   25   26 1
    47   25   47 1
    48   25   48 1
    49   26   27 1
    50   26   49 1
    51   26   50 1
    52   27   28 1
    53   27   51 1
    54   27   52 1
    55   28   53 1
    56   28   54 1
@<BUDE>CONF  1
   -0.6368   -3.3029   -3.0289
   -1.9604   -3.6744   -3.6913
   -3.0710   -2.8420   -3.0964
   -3.7262   -2.0870   -3.8130
   -3.3409   -2.9253   -1.7968
   -4.4220   -2.1150   -1.2177
   -3.9542   -0.6872   -1.0668
   -3.8378   -0.2076    0.0214
   -3.6672    0.0479   -2.1621
   -3.2278    1.3950   -1.9696
   -3.0302    2.0654   -3.3261
   -1.9201    1.3939   -1.2145
   -1.3875    0.3287   -0.9070
   -1.3438    2.5454   -0.8818
   -0.1184    2.5460   -0.1744
    0.4932    3.7696    0.1231
    1.7056    3.8302    0.8204
    2.2686    2.6064    1.2014
    1.6460    1.3884    0.9041
    0.4348    1.3133    0.2061
    2.4413    0.3221    1.3183
    3.2556    1.0454    2.2448
    3.4394    2.4179    1.8877
    4.6896    0.3141    2.3516
    4.5276   -1.1315    2.8570
    3.7942   -1.1526    4.2110
    2.4137   -0.4788    4.1009
    2.5292    0.9731    3.6008
   -0.6965   -3.5060   -1.9616
    0.1653   -3.8933   -3.4667
   -0.4374   -2.2451   -3.1868
   -2.1679   -4.7290   -3.5219
   -1.8978   -3.4835   -4.7605
   -2.8035   -3.5450   -1.2074
   -5.2894   -2.1442   -1.8738
   -4.6914   -2.5127   -0.2416
   -3.9747    1.9429   -1.3990
   -2.2922    1.5095   -3.9006
   -3.9754    2.0782   -3.8647
   -2.6823    3.0857   -3.1785
   -1.7811    3.4200   -1.1343
    0.0216    4.6896   -0.1892
    2.1786    4.7734    1.0510
   -0.0285    0.3623   -0.0113
    5.1836    0.3103    1.3824
    5.3195    0.8756    3.0383
    5.5084   -1.5877    2.9738
    3.9700   -1.7181    2.1299
    3.6642   -2.1827    4.5361
    4.3916   -0.6389    4.9613
    1.9360   -0.4804    5.0784
    1.7839   -1.0486    3.4207
    1.5343    1.3988    3.4897
    3.0656    1.5686    4.3365
@<BUDE>CONF  2
   -1.9425   -3.7260   -5.1195
   -2.0426   -4.0077   -3.6232
   -3.1532   -3.1753   -3.0282
   -3.8084   -2.4203   -3.7449
   -3.4231   -3.2586   -1.7287
   -4.5042   -2.4483   -1.1495
   -4.0364   -1.0205   -0.9987
   -3.9200   -0.5409    0.0896
   -3.7494   -0.2854   -2.0940
   -3.3100    1.0617   -1.9014
   -3.1124    1.7321   -3.2580
   -2.0023    1.0606   -1.1463
   -1.4697   -0.0046   -0.8388
   -1.4260    2.2121   -0.8137
   -0.2006    2.2127   -0.1062
    0.3870    3.4372    0.2329
    1.5982    3.4979    0.9322
    2.1853    2.2731    1.2717
    1.5865    1.0539    0.9329
    0.3769    0.9789    0.2323
    2.4028   -0.0099    1.3108
    3.2030    0.6972    2.2616
    3.3597    2.0844    1.9514
    4.6766    0.0383    2.3765
    5.4715    0.6702    3.5341
    4.7008    0.5300    4.8601
    3.3070    1.1771    4.7587
    2.4787    0.5646    3.6142
   -1.7160   -2.6732   -5.2753
   -1.1511   -4.3355   -5.5504
   -2.8892   -3.9685   -5.5976
   -1.1010   -3.7522   -3.1416
   -2.2568   -5.0627   -3.4655
   -2.8857   -3.8783   -1.1393
   -5.3716   -2.4775   -1.8056
   -4.7736   -2.8460   -0.1734
   -4.0569    1.6096   -1.3308
   -2.3744    1.1762   -3.8325
   -4.0576    1.7449   -3.7966
   -2.7645    2.7524   -3.1104
   -1.8633    3.0867   -1.0661
   -0.1027    4.3579   -0.0481
    2.0526    4.4418    1.1950
   -0.0678    0.0269   -0.0174
    4.5965   -1.0357    2.5301
    5.2043    0.1967    1.4383
    5.6388    1.7251    3.3269
    6.4429    0.1884    3.6231
    4.5884   -0.5245    5.1035
    5.2631    0.9999    5.6643
    3.4204    2.2448    4.5827
    2.7769    1.0487    5.7002
    2.3033   -0.4897    3.8170
    1.5108    1.0589    3.5619
@<BUDE>CONF  3
   -2.9825    4.3223    0.4503
   -4.0621    4.1476   -0.6138
   -4.4302    2.6871   -0.7211
   -3.8730    1.8573   -0.0042
   -5.3575    2.2976   -1.5913
   -5.7158    0.8759   -1.6958
   -4.6391    0.1411   -2.4579
   -4.8852   -0.3470   -3.5205
   -3.3977    0.0353   -1.9384
   -2.4111   -0.6697   -2.6965
   -2.8707   -2.1079   -2.9182
   -1.1034   -0.6708   -1.9414
   -0.5708   -1.7360   -1.6339
   -0.5271    0.4807   -1.6087
    0.6983    0.4813   -0.9013
    1.3099    1.7049   -0.6038
    2.5223    1.7655    0.0935
    3.0853    0.5417    0.4745
    2.4627   -0.6763    0.1772
    1.2515   -0.7514   -0.5208
    3.2580   -1.7426    0.5914
    4.0723   -1.0193    1.5179
    4.2561    0.3532    1.1608
    5.5063   -1.7506    1.6247
    5.3443   -3.1962    2.1301
    4.6109   -3.2173    3.4841
    3.2304   -2.5435    3.3740
    3.3458   -1.0916    2.8739
   -2.0982    3.7562    0.1651
   -2.7266    5.3762    0.5368
   -3.3539    3.9588    1.4061
   -3.6868    4.4978   -1.5731
   -4.9425    4.7234   -0.3361
   -5.8157    2.9781   -2.1805
   -5.8083    0.4503   -0.6988
   -6.6630    0.7776   -2.2219
   -2.2734   -0.1800   -3.6581
   -3.0201   -2.5927   -1.9558
   -3.8061   -2.1074   -3.4738
   -2.1129   -2.6470   -3.4829
   -0.9644    1.3553   -1.8612
    0.8383    2.6249   -0.9161
    2.9952    2.7087    0.3241
    0.7882   -1.7024   -0.7382
    6.0003   -1.7544    0.6555
    6.1362   -1.1891    2.3114
    6.3251   -3.6524    2.2469
    4.7867   -3.7828    1.4030
    4.4809   -4.2474    3.8092
    5.2083   -2.7036    4.2344
    2.7527   -2.5451    4.3515
    2.6006   -3.1133    2.6938
    2.3510   -0.6659    2.7628
    3.8823   -0.4961    3.6096
@<BUDE>CONF  4
   -3.1552    3.9824    0.3587
   -4.2349    3.8077   -0.7054
   -4.6030    2.3472   -0.8127
   -4.0458    1.5174   -0.0958
   -5.5303    1.9577   -1.6829
   -5.8886    0.5360   -1.7874
   -4.8119   -0.1988   -2.5495
   -5.0580   -0.6869   -3.6121
   -3.5704   -0.3046   -2.0300
   -2.5839   -1.0096   -2.7881
   -3.0434   -2.4478   -3.0098
   -1.2762   -1.0107   -2.0330
   -0.7436   -2.0759   -1.7255
   -0.6999    0.1408   -1.7003
    0.5255    0.1414   -0.9929
    1.1131    1.3659   -0.6538
    2.3243    1.4266    0.0456
    2.9114    0.2018    0.3850
    2.3126   -1.0174    0.0462
    1.1030   -1.0924   -0.6544
    3.1289   -2.0812    0.4242
    3.9291   -1.3741    1.3750
    4.0858    0.0131    1.0648
    5.4027   -2.0330    1.4898
    6.1976   -1.4011    2.6475
    5.4269   -1.5413    3.9734
    4.0331   -0.8942    3.8721
    3.2048   -1.5067    2.7275
   -2.2709    3.4163    0.0735
   -2.8994    5.0363    0.4452
   -3.5267    3.6189    1.3145
   -3.8595    4.1579   -1.6647
   -5.1153    4.3835   -0.4277
   -5.9885    2.6382   -2.2721
   -5.9811    0.1104   -0.7904
   -6.8358    0.4377   -2.3135
   -2.4462   -0.5199   -3.7497
   -3.1928   -2.9326   -2.0474
   -3.9788   -2.4473   -3.5654
   -2.2857   -2.9869   -3.5745
   -1.1372    1.0154   -1.9528
    0.6234    2.2866   -0.9348
    2.7787    2.3705    0.3083
    0.6583   -2.0444   -0.9041
    5.3226   -3.1070    1.6435
    5.9304   -1.8746    0.5517
    6.3649   -0.3462    2.4403
    7.1690   -1.8829    2.7365
    5.3145   -2.5958    4.2169
    5.9892   -1.0714    4.7776
    4.1465    0.1735    3.6960
    3.5030   -1.0226    4.8135
    3.0294   -2.5610    2.9304
    2.2369   -1.0124    2.6753
@<BUDE>CONF  5
   -1.9100   -3.7576   -5.1246
   -2.0101   -4.0393   -3.6282
   -3.1207   -3.2069   -3.0333
   -3.7759   -2.4519   -3.7499
   -3.3906   -3.2902   -1.7337
   -4.4717   -2.4799   -1.1546
   -4.0039   -1.0521   -1.0037
   -3.8875   -0.5725    0.0845
   -3.7169   -0.3170   -2.0990
   -3.2775    1.0301   -1.9065
   -3.0799    1.7005   -3.2630
   -1.9698    1.0290   -1.1514
   -1.4372   -0.0362   -0.8439
   -1.3935    2.1805   -0.8187
   -0.1681    2.1811   -0.1113
    0.4435    3.4047    0.1862
    1.6559    3.4653    0.8835
    2.2189    2.2415    1.2645
    1.5963    1.0235    0.9672
    0.3851    0.9484    0.2692
    2.3916   -0.0428    1.3814
    3.2059    0.6805    2.3079
    3.3897    2.0530    1.9508
    4.5872   -0.0237    2.4155
    5.1734    0.0457    3.8378
    4.7553    1.3550    4.5324
    3.2312    1.4023    4.7482
    2.4795    0.6082    3.6639
   -1.6835   -2.7048   -5.2804
   -1.1186   -4.3671   -5.5555
   -2.8567   -4.0001   -5.6027
   -1.0685   -3.7838   -3.1467
   -2.2243   -5.0943   -3.4706
   -2.8532   -3.9099   -1.1443
   -5.3391   -2.5091   -1.8107
   -4.7411   -2.8776   -0.1785
   -4.0244    1.5780   -1.3359
   -2.3419    1.1446   -3.8375
   -4.0251    1.7133   -3.8016
   -2.7320    2.7208   -3.1154
   -1.8308    3.0551   -1.0712
   -0.0281    4.3247   -0.1261
    2.1289    4.4085    1.1141
   -0.0782   -0.0026    0.0518
    4.4865   -1.0632    2.1108
    5.2646    0.4591    1.7143
    6.2591   -0.0014    3.7860
    4.8289   -0.8046    4.4225
    5.2552    1.4292    5.4959
    5.0645    2.2064    3.9297
    2.8986    2.4380    4.7241
    2.9898    0.9970    5.7287
    2.4016   -0.4340    3.9658
    1.4701    1.0010    3.5608
@<BUDE>CONF  6
   -1.8654   -3.5272   -5.1192
   -1.9655   -3.8089   -3.6228
   -3.0761   -2.9765   -3.0279
   -3.7313   -2.2215   -3.7445
   -3.3460   -3.0598   -1.7283
   -4.4271   -2.2495   -1.1492
   -3.9593   -0.8217   -0.9983
   -3.8429   -0.3421    0.0899
   -3.6723   -0.0866   -2.0936
   -3.2329    1.2605   -1.9011
   -3.0353    1.9309   -3.2576
   -1.9252    1.2594   -1.1460
   -1.3926    0.1942   -0.8385
   -1.3489    2.4109   -0.8133
   -0.1235    2.4115   -0.1059
    0.4881    3.6351    0.1916
    1.7005    3.6957    0.8889
    2.2635    2.4719    1.2699
    1.6409    1.2539    0.9726
    0.4297    1.1788    0.2746
    2.4362    0.1876    1.3868
    3.2505    0.9109    2.3133
    3.4343    2.2834    1.9562
    4.6178    0.1647    2.3900
    5.2373    0.2962    3.7937
    4.3851   -0.4542    4.8340
    2.8964   -0.4417    4.4398
    2.5241    0.8386    3.6693
   -1.6389   -2.4744   -5.2750
   -1.0740   -4.1367   -5.5501
   -2.8121   -3.7697   -5.5973
   -1.0239   -3.5534   -3.1413
   -2.1797   -4.8639   -3.4652
   -2.8086   -3.6795   -1.1389
   -5.2945   -2.2787   -1.8053
   -4.6965   -2.6472   -0.1731
   -3.9798    1.8084   -1.3305
   -2.2973    1.3750   -3.8321
   -3.9805    1.9437   -3.7962
   -2.6874    2.9512   -3.1100
   -1.7862    3.2855   -1.0658
    0.0165    4.5551   -0.1207
    2.1735    4.6389    1.1195
   -0.0336    0.2278    0.0572
    4.4854   -0.8869    2.1448
    5.2907    0.5916    1.6494
    5.2946    1.3473    4.0686
    6.2486   -0.1048    3.7915
    4.7270   -1.4845    4.9066
    4.5070    0.0073    5.8117
    2.2877   -0.5039    5.3395
    2.6751   -1.3126    3.8262
    1.4505    0.8576    3.4944
    2.7789    1.7099    4.2689
@<BUDE>CONF  7
   -3.1228    3.9507    0.3536
   -4.2025    3.7760   -0.7105
   -4.5706    2.3155   -0.8178
   -4.0134    1.4857   -0.1009
   -5.4979    1.9260   -1.6880
   -5.8562    0.5043   -1.7925
   -4.7795   -0.2305   -2.5546
   -5.0256   -0.7186   -3.6172
   -3.5380   -0.3363   -2.0351
   -2.5515   -1.0413   -2.7932
   -3.0110   -2.4795   -3.0149
   -1.2438   -1.0424   -2.0381
   -0.7112   -2.1076   -1.7306
   -0.6675    0.1091   -1.7054
    0.5579    0.1097   -0.9980
    1.1695    1.3333   -0.7005
    2.3819    1.3939   -0.0032
    2.9449    0.1701    0.3778
    2.3223   -1.0479    0.0805
    1.1111   -1.1230   -0.6175
    3.1176   -2.1142    0.4947
    3.9319   -1.3909    1.4212
    4.1157   -0.0184    1.0641
    5.3132   -2.0951    1.5288
    5.8994   -2.0257    2.9511
    5.4813   -0.7164    3.6457
    3.9572   -0.6691    3.8615
    3.2055   -1.4632    2.7772
   -2.2385    3.3846    0.0684
   -2.8670    5.0046    0.4401
   -3.4943    3.5872    1.3094
   -3.8271    4.1262   -1.6698
   -5.0829    4.3518   -0.4328
   -5.9561    2.6065   -2.2772
   -5.9487    0.0787   -0.7955
   -6.8034    0.4060   -2.3186
   -2.4138   -0.5516   -3.7548
   -3.1604   -2.9643   -2.0525
   -3.9464   -2.4790   -3.5705
   -2.2533   -3.0186   -3.5796
   -1.1048    0.9837   -1.9579
    0.6979    2.2533   -1.0128
    2.8549    2.3371    0.2274
    0.6478   -2.0740   -0.8349
    5.2125   -3.1346    1.2241
    5.9906   -1.6123    0.8276
    6.9851   -2.0728    2.8993
    5.5549   -2.8760    3.5358
    5.9812   -0.6422    4.6092
    5.7905    0.1350    3.0430
    3.6246    0.3666    3.8374
    3.7158   -1.0744    4.8420
    3.1276   -2.5054    3.0791
    2.1961   -1.0704    2.6741
@<BUDE>CONF  8
   -3.0782    4.1812    0.3590
   -4.1579    4.0065   -0.7051
   -4.5260    2.5460   -0.8124
   -3.9688    1.7162   -0.0955
   -5.4533    2.1565   -1.6826
   -5.8116    0.7348   -1.7871
   -4.7349    0.0000   -2.5492
   -4.9810   -0.4881   -3.6118
   -3.4934   -0.1058   -2.0297
   -2.5069   -0.8108   -2.7878
   -2.9664   -2.2490   -3.0095
   -1.1992   -0.8119   -2.0327
   -0.6666   -1.8771   -1.7252
   -0.6229    0.3396   -1.7000
    0.6025    0.3402   -0.9926
    1.2141    1.5638   -0.6951
    2.4265    1.6244    0.0022
    2.9895    0.4006    0.3832
    2.3669   -0.8174    0.0859
    1.1557   -0.8925   -0.6121
    3.1622   -1.8837    0.5001
    3.9765   -1.1604    1.4266
    4.1603    0.2121    1.0695
    5.3438   -1.9066    1.5033
    5.9633   -1.7751    2.9070
    5.1111   -2.5255    3.9473
    3.6224   -2.5130    3.5531
    3.2501   -1.2327    2.7826
   -2.1939    3.6151    0.0738
   -2.8224    5.2351    0.4455
   -3.4497    3.8177    1.3148
   -3.7825    4.3567   -1.6644
   -5.0383    4.5823   -0.4274
   -5.9115    2.8370   -2.2718
   -5.9041    0.3092   -0.7901
   -6.7588    0.6365   -2.3132
   -2.3692   -0.3211   -3.7494
   -3.1158   -2.7338   -2.0471
   -3.9018   -2.2485   -3.5651
   -2.2087   -2.7881   -3.5742
   -1.0602    1.2142   -1.9525
    0.7425    2.4838   -1.0074
    2.8995    2.5676    0.2328
    0.6924   -1.8435   -0.8295
    5.2114   -2.9582    1.2581
    6.0167   -1.4797    0.7627
    6.0206   -0.7240    3.1819
    6.9746   -2.1761    2.9048
    5.4530   -3.5558    4.0199
    5.2330   -2.0640    4.9250
    3.0137   -2.5752    4.4528
    3.4011   -3.3839    2.9395
    2.1765   -1.2137    2.6077
    3.5049   -0.3614    3.3822
@<BUDE>CONF  9
   -1.1590   -3.8180    0.3522
   -2.4271   -3.2562   -0.2844
   -2.4782   -3.6562   -1.7396
   -1.5736   -4.3342   -2.2241
   -3.5021   -3.2748   -2.4980
   -4.5832   -2.4646   -1.9189
   -4.1154   -1.0368   -1.7680
   -3.9990   -0.5572   -0.6798
   -3.8284   -0.3017   -2.8633
   -3.3890    1.0454   -2.6708
   -3.1914    1.7158   -4.0273
   -2.0813    1.0443   -1.9157
   -1.5487   -0.0209   -1.6082
   -1.5050    2.1958   -1.5830
   -0.2796    2.1964   -0.8756
    0.3080    3.4209   -0.5365
    1.5192    3.4816    0.1629
    2.1063    2.2569    0.5023
    1.5075    1.0376    0.1635
    0.2979    0.9626   -0.5371
    2.3238   -0.0261    0.5415
    3.1240    0.6809    1.4923
    3.2807    2.0681    1.1821
    4.5976    0.0220    1.6071
    5.3925    0.6539    2.7648
    4.6218    0.5137    4.0907
    3.2280    1.1608    3.9894
    2.3997    0.5483    2.8448
   -0.2876   -3.4103   -0.1560
   -1.1287   -3.5410    1.4039
   -1.1581   -4.9022    0.2618
   -2.4223   -2.1711   -0.2070
   -3.2990   -3.6536    0.2310
   -3.5374   -3.5417   -3.4715
   -5.4506   -2.4938   -2.5750
   -4.8526   -2.8623   -0.9428
   -4.1359    1.5933   -2.1002
   -2.4534    1.1599   -4.6018
   -4.1366    1.7286   -4.5659
   -2.8435    2.7361   -3.8797
   -1.9423    3.0704   -1.8355
   -0.1817    4.3417   -0.8175
    1.9736    4.4255    0.4256
   -0.1468    0.0106   -0.7868
    4.5175   -1.0520    1.7608
    5.1253    0.1804    0.6690
    5.5598    1.7088    2.5576
    6.3639    0.1721    2.8538
    4.5094   -0.5408    4.3342
    5.1841    0.9836    4.8949
    3.3414    2.2285    3.8133
    2.6979    1.0324    4.9308
    2.2243   -0.5060    3.0477
    1.4318    1.0426    2.7926
@<BUDE>CONF  10
   -0.9862   -3.4780    0.4439
   -2.2543   -2.9163   -0.1927
   -2.3054   -3.3162   -1.6479
   -1.4008   -3.9943   -2.1324
   -3.3293   -2.9349   -2.4063
   -4.4104   -2.1246   -1.8272
   -3.9426   -0.6968   -1.6763
   -3.8262   -0.2172   -0.5881
   -3.6556    0.0383   -2.7716
   -3.2162    1.3854   -2.5791
   -3.0186    2.0558   -3.9356
   -1.9085    1.3843   -1.8240
   -1.3759    0.3191   -1.5165
   -1.3322    2.5358   -1.4913
   -0.1068    2.5364   -0.7839
    0.5048    3.7600   -0.4864
    1.7172    3.8206    0.2109
    2.2802    2.5968    0.5919
    1.6576    1.3788    0.2946
    0.4464    1.3037   -0.4034
    2.4529    0.3125    0.7088
    3.2672    1.0358    1.6353
    3.4510    2.4083    1.2782
    4.7012    0.3045    1.7421
    4.5392   -1.1411    2.2475
    3.8058   -1.1622    3.6015
    2.4253   -0.4884    3.4914
    2.5408    0.9635    2.9913
   -0.1148   -3.0703   -0.0643
   -0.9559   -3.2010    1.4956
   -0.9853   -4.5622    0.3535
   -2.2495   -1.8311   -0.1153
   -3.1262   -3.3136    0.3227
   -3.3646   -3.2018   -3.3798
   -5.2778   -2.1538   -2.4833
   -4.6798   -2.5223   -0.8511
   -3.9631    1.9333   -2.0085
   -2.2806    1.4999   -4.5101
   -3.9638    2.0686   -4.4742
   -2.6707    3.0761   -3.7880
   -1.7695    3.4104   -1.7438
    0.0332    4.6800   -0.7987
    2.1902    4.7638    0.4415
   -0.0169    0.3527   -0.6208
    5.1952    0.3007    0.7729
    5.3311    0.8660    2.4288
    5.5200   -1.5973    2.3643
    3.9816   -1.7277    1.5204
    3.6758   -2.1923    3.9266
    4.4032   -0.6485    4.3518
    1.9476   -0.4900    4.4689
    1.7955   -1.0582    2.8112
    1.5459    1.3892    2.8802
    3.0772    1.5590    3.7270
@<BUDE>CONF  11
   -5.7353    3.7858   -4.3137
   -5.6625    2.6664   -3.2792
   -5.1238    3.2169   -1.9804
   -4.8241    4.4066   -1.8930
   -4.9734    2.4148   -0.9301
   -5.3317    0.9931   -1.0346
   -4.2550    0.2583   -1.7967
   -4.5011   -0.2298   -2.8593
   -3.0135    0.1525   -1.2772
   -2.0270   -0.5525   -2.0353
   -2.4865   -1.9907   -2.2570
   -0.7193   -0.5536   -1.2802
   -0.1867   -1.6188   -0.9727
   -0.1430    0.5979   -0.9475
    1.0824    0.5985   -0.2401
    1.6940    1.8221    0.0574
    2.9064    1.8827    0.7547
    3.4694    0.6589    1.1357
    2.8468   -0.5591    0.8384
    1.6356   -0.6342    0.1404
    3.6421   -1.6254    1.2526
    4.4564   -0.9021    2.1791
    4.6402    0.4704    1.8220
    5.8904   -1.6334    2.2859
    5.7284   -3.0790    2.7913
    4.9950   -3.1001    4.1453
    3.6145   -2.4263    4.0352
    3.7300   -0.9744    3.5351
   -4.7378    4.1843   -4.4868
   -6.1358    3.3920   -5.2455
   -6.3840    4.5777   -3.9452
   -5.0027    1.8802   -3.6405
   -6.6576    2.2586   -3.1145
   -4.6132    2.7820   -0.0609
   -5.4242    0.5675   -0.0376
   -6.2789    0.8948   -1.5607
   -1.8893   -0.0628   -2.9969
   -2.6359   -2.4755   -1.2946
   -3.4219   -1.9902   -2.8126
   -1.7288   -2.5298   -2.8217
   -0.5803    1.4725   -1.2000
    1.2224    2.7421   -0.2549
    3.3794    2.8259    0.9853
    1.1723   -1.5852   -0.0770
    6.3844   -1.6372    1.3167
    6.5203   -1.0719    2.9726
    6.7092   -3.5352    2.9081
    5.1708   -3.6656    2.0642
    4.8650   -4.1302    4.4704
    5.5924   -2.5864    4.8956
    3.1368   -2.4279    5.0127
    2.9847   -2.9961    3.3550
    2.7351   -0.5487    3.4240
    4.2664   -0.3789    4.2708
@<BUDE>CONF  12
   -5.9081    3.4458   -4.4054
   -5.8353    2.3264   -3.3709
   -5.2966    2.8769   -2.0721
   -4.9969    4.0666   -1.9847
   -5.1462    2.0748   -1.0218
   -5.5045    0.6531   -1.1263
   -4.4278   -0.0817   -1.8884
   -4.6739   -0.5698   -2.9510
   -3.1863   -0.1875   -1.3689
   -2.1998   -0.8925   -2.1270
   -2.6593   -2.3307   -2.3487
   -0.8921   -0.8936   -1.3719
   -0.3595   -1.9588   -1.0644
   -0.3158    0.2579   -1.0392
    0.9096    0.2585   -0.3318
    1.4972    1.4830    0.0073
    2.7084    1.5437    0.7067
    3.2955    0.3189    1.0461
    2.6967   -0.9003    0.7073
    1.4871   -0.9753    0.0067
    3.5130   -1.9641    1.0853
    4.3132   -1.2570    2.0361
    4.4699    0.1302    1.7259
    5.7868   -1.9159    2.1509
    6.5817   -1.2840    3.3086
    5.8110   -1.4242    4.6345
    4.4172   -0.7771    4.5332
    3.5889   -1.3896    3.3886
   -4.9106    3.8443   -4.5785
   -6.3086    3.0520   -5.3372
   -6.5568    4.2377   -4.0369
   -5.1755    1.5402   -3.7322
   -6.8304    1.9186   -3.2062
   -4.7860    2.4420   -0.1526
   -5.5970    0.2275   -0.1293
   -6.4517    0.5548   -1.6524
   -2.0621   -0.4028   -3.0886
   -2.8087   -2.8155   -1.3863
   -3.5947   -2.3302   -2.9043
   -1.9016   -2.8698   -2.9134
   -0.7531    1.1325   -1.2917
    1.0075    2.4037   -0.2737
    3.1628    2.4876    0.9694
    1.0424   -1.9273   -0.2430
    5.7067   -2.9899    2.3046
    6.3145   -1.7575    1.2128
    6.7490   -0.2291    3.1014
    7.5531   -1.7658    3.3976
    5.6986   -2.4787    4.8780
    6.3733   -0.9543    5.4387
    4.5306    0.2906    4.3571
    3.8871   -0.9055    5.4746
    3.4135   -2.4439    3.5915
    2.6210   -0.8953    3.3364
@<BUDE>CONF  13
   -1.1265   -3.8496    0.3472
   -2.3946   -3.2879   -0.2894
   -2.4457   -3.6878   -1.7446
   -1.5411   -4.3659   -2.2291
   -3.4696   -3.3065   -2.5030
   -4.5507   -2.4962   -1.9239
   -4.0829   -1.0684   -1.7730
   -3.9665   -0.5888   -0.6848
   -3.7959   -0.3333   -2.8683
   -3.3565    1.0138   -2.6758
   -3.1589    1.6842   -4.0323
   -2.0488    1.0127   -1.9207
   -1.5162   -0.0525   -1.6132
   -1.4725    2.1642   -1.5880
   -0.2471    2.1648   -0.8806
    0.3645    3.3884   -0.5831
    1.5769    3.4490    0.1142
    2.1399    2.2252    0.4952
    1.5173    1.0072    0.1979
    0.3061    0.9321   -0.5001
    2.3126   -0.0591    0.6121
    3.1269    0.6642    1.5386
    3.3107    2.0367    1.1815
    4.5082   -0.0400    1.6462
    5.0944    0.0294    3.0685
    4.6763    1.3387    3.7631
    3.1522    1.3860    3.9789
    2.4005    0.5919    2.8946
   -0.2551   -3.4419   -0.1610
   -1.0962   -3.5726    1.3989
   -1.1256   -4.9338    0.2568
   -2.3898   -2.2027   -0.2120
   -3.2665   -3.6852    0.2260
   -3.5049   -3.5734   -3.4765
   -5.4181   -2.5254   -2.5800
   -4.8201   -2.8939   -0.9478
   -4.1034    1.5617   -2.1052
   -2.4209    1.1283   -4.6068
   -4.1041    1.6970   -4.5709
   -2.8110    2.7045   -3.8847
   -1.9098    3.0388   -1.8405
   -0.1071    4.3084   -0.8954
    2.0499    4.3922    0.3448
   -0.1572   -0.0189   -0.7175
    4.4075   -1.0795    1.3415
    5.1856    0.4428    0.9450
    6.1801   -0.0177    3.0167
    4.7499   -0.8209    3.6532
    5.1762    1.4129    4.7266
    4.9855    2.1901    3.1604
    2.8196    2.4217    3.9548
    2.9108    0.9807    4.9594
    2.3226   -0.4503    3.1965
    1.3911    0.9847    2.7915
@<BUDE>CONF  14
   -1.0819   -3.6191    0.3525
   -2.3500   -3.0574   -0.2841
   -2.4011   -3.4573   -1.7393
   -1.4965   -4.1354   -2.2238
   -3.4250   -3.0760   -2.4977
   -4.5061   -2.2657   -1.9186
   -4.0383   -0.8379   -1.7677
   -3.9219   -0.3583   -0.6795
   -3.7513   -0.1028   -2.8630
   -3.3119    1.2443   -2.6705
   -3.1143    1.9147   -4.0270
   -2.0042    1.2432   -1.9154
   -1.4716    0.1780   -1.6079
   -1.4279    2.3947   -1.5827
   -0.2025    2.3953   -0.8753
    0.4091    3.6189   -0.5778
    1.6215    3.6795    0.1195
    2.1845    2.4557    0.5005
    1.5619    1.2377    0.2032
    0.3507    1.1626   -0.4948
    2.3572    0.1714    0.6174
    3.1715    0.8947    1.5439
    3.3553    2.2672    1.1868
    4.5388    0.1485    1.6206
    5.1583    0.2800    3.0243
    4.3061   -0.4704    4.0646
    2.8174   -0.4579    3.6704
    2.4451    0.8224    2.8999
   -0.2105   -3.2114   -0.1557
   -1.0516   -3.3421    1.4042
   -1.0810   -4.7033    0.2621
   -2.3452   -1.9722   -0.2067
   -3.2219   -3.4547    0.2313
   -3.4603   -3.3429   -3.4712
   -5.3735   -2.2949   -2.5747
   -4.7755   -2.6634   -0.9425
   -4.0588    1.7922   -2.0999
   -2.3763    1.3588   -4.6015
   -4.0595    1.9275   -4.5656
   -2.7664    2.9350   -3.8794
   -1.8652    3.2693   -1.8352
   -0.0625    4.5389   -0.8901
    2.0945    4.6227    0.3501
   -0.1126    0.2116   -0.7122
    4.4064   -0.9031    1.3754
    5.2117    0.5754    0.8800
    5.2156    1.3311    3.2992
    6.1696   -0.1210    3.0221
    4.6480   -1.5007    4.1372
    4.4280   -0.0089    5.0423
    2.2087   -0.5201    4.5701
    2.5961   -1.3288    3.0568
    1.3715    0.8414    2.7250
    2.6999    1.6937    3.4995
@<BUDE>CONF  15
   -5.8756    3.4142   -4.4104
   -5.8028    2.2948   -3.3759
   -5.2641    2.8453   -2.0771
   -4.9644    4.0350   -1.9897
   -5.1137    2.0432   -1.0268
   -5.4720    0.6215   -1.1313
   -4.3953   -0.1133   -1.8934
   -4.6414   -0.6014   -2.9560
   -3.1538   -0.2191   -1.3739
   -2.1673   -0.9241   -2.1320
   -2.6268   -2.3623   -2.3537
   -0.8596   -0.9252   -1.3769
   -0.3270   -1.9904   -1.0694
   -0.2833    0.2263   -1.0442
    0.9421    0.2269   -0.3368
    1.5537    1.4505   -0.0393
    2.7661    1.5111    0.6580
    3.3291    0.2873    1.0390
    2.7065   -0.9307    0.7417
    1.4953   -1.0058    0.0437
    3.5018   -1.9970    1.1559
    4.3161   -1.2737    2.0824
    4.4999    0.0988    1.7253
    5.6974   -1.9779    2.1900
    6.2836   -1.9085    3.6123
    5.8655   -0.5992    4.3069
    4.3414   -0.5519    4.5227
    3.5897   -1.3460    3.4384
   -4.8781    3.8127   -4.5835
   -6.2761    3.0204   -5.3422
   -6.5243    4.2061   -4.0419
   -5.1430    1.5086   -3.7372
   -6.7979    1.8870   -3.2112
   -4.7535    2.4104   -0.1576
   -5.5645    0.1959   -0.1343
   -6.4192    0.5232   -1.6574
   -2.0296   -0.4344   -3.0936
   -2.7762   -2.8471   -1.3913
   -3.5622   -2.3618   -2.9093
   -1.8691   -2.9014   -2.9184
   -0.7206    1.1009   -1.2967
    1.0821    2.3705   -0.3516
    3.2391    2.4543    0.8886
    1.0320   -1.9568   -0.1737
    5.5967   -3.0174    1.8853
    6.3748   -1.4951    1.4888
    7.3693   -1.9556    3.5605
    5.9391   -2.7588    4.1970
    6.3654   -0.5250    5.2704
    6.1747    0.2522    3.7042
    4.0088    0.4838    4.4986
    4.1000   -0.9572    5.5032
    3.5118   -2.3882    3.7403
    2.5803   -0.9532    3.3353
@<BUDE>CONF  16
   -5.8310    3.6446   -4.4051
   -5.7582    2.5252   -3.3706
   -5.2195    3.0757   -2.0718
   -4.9198    4.2654   -1.9844
   -5.0691    2.2736   -1.0215
   -5.4274    0.8519   -1.1260
   -4.3507    0.1171   -1.8881
   -4.5968   -0.3710   -2.9507
   -3.1092    0.0113   -1.3686
   -2.1227   -0.6937   -2.1267
   -2.5822   -2.1319   -2.3484
   -0.8150   -0.6948   -1.3716
   -0.2824   -1.7600   -1.0641
   -0.2387    0.4567   -1.0389
    0.9867    0.4573   -0.3315
    1.5983    1.6809   -0.0340
    2.8107    1.7415    0.6633
    3.3737    0.5177    1.0443
    2.7511   -0.7003    0.7470
    1.5399   -0.7754    0.0490
    3.5464   -1.7666    1.1612
    4.3607   -1.0433    2.0877
    4.5445    0.3292    1.7306
    5.7280   -1.7895    2.1644
    6.3475   -1.6580    3.5681
    5.4953   -2.4084    4.6084
    4.0066   -2.3959    4.2142
    3.6343   -1.1156    3.4437
   -4.8335    4.0431   -4.5782
   -6.2315    3.2508   -5.3369
   -6.4797    4.4365   -4.0366
   -5.0984    1.7390   -3.7319
   -6.7533    2.1174   -3.2059
   -4.7089    2.6408   -0.1523
   -5.5199    0.4263   -0.1290
   -6.3746    0.7536   -1.6521
   -1.9850   -0.2040   -3.0883
   -2.7316   -2.6167   -1.3860
   -3.5176   -2.1314   -2.9040
   -1.8245   -2.6710   -2.9131
   -0.6760    1.3313   -1.2914
    1.1267    2.6009   -0.3463
    3.2837    2.6847    0.8939
    1.0766   -1.7264   -0.1684
    5.5956   -2.8411    1.9192
    6.4009   -1.3626    1.4238
    6.4048   -0.6069    3.8430
    7.3588   -2.0590    3.5659
    5.8372   -3.4387    4.6810
    5.6172   -1.9469    5.5861
    3.3979   -2.4581    5.1139
    3.7853   -3.2668    3.6006
    2.5607   -1.0966    3.2688
    3.8891   -0.2443    4.0433
@<BUDE>CONF  17
   -5.9075    3.4089   -4.3870
   -5.8347    2.2895   -3.3525
   -5.2960    2.8400   -2.0537
   -4.9963    4.0297   -1.9663
   -5.1456    2.0379   -1.0034
   -5.5039    0.6162   -1.1079
   -4.4272   -0.1186   -1.8700
   -4.6733   -0.6067   -2.9326
   -3.1857   -0.2244   -1.3505
   -2.1992   -0.9294   -2.1086
   -2.6587   -2.3676   -2.3303
   -0.8915   -0.9305   -1.3535
   -0.3589   -1.9957   -1.0460
   -0.3152    0.2210   -1.0208
    0.9102    0.2216   -0.3134
    1.5218    1.4452   -0.0159
    2.7342    1.5058    0.6814
    3.2972    0.2820    1.0624
    2.6746   -0.9360    0.7651
    1.4634   -1.0111    0.0671
    3.4699   -2.0023    1.1793
    4.2842   -1.2790    2.1058
    4.4680    0.0935    1.7487
    5.6623   -1.9081    2.1976
    6.6062   -1.1562    3.1541
    5.8137   -0.5346    4.3191
    4.5554   -1.3645    4.6348
    3.5578   -1.3513    3.4618
   -4.9100    3.8074   -4.5601
   -6.3080    3.0151   -5.3188
   -6.5562    4.2008   -4.0185
   -5.1749    1.5033   -3.7138
   -6.8298    1.8817   -3.1878
   -4.7854    2.4051   -0.1342
   -5.5964    0.1906   -0.1109
   -6.4511    0.5179   -1.6340
   -2.0615   -0.4397   -3.0702
   -2.8081   -2.8524   -1.3679
   -3.5941   -2.3671   -2.8859
   -1.9010   -2.9067   -2.8950
   -0.7525    1.0956   -1.2733
    1.0502    2.3652   -0.3282
    3.2072    2.4490    0.9120
    1.0001   -1.9621   -0.1503
    5.5593   -2.9416    2.5215
    6.0862   -1.9194    1.1957
    7.1217   -0.3674    2.6104
    7.3575   -1.8387    3.5460
    6.4450   -0.4918    5.2042
    5.5248    0.4834    4.0660
    4.0696   -0.9554    5.5183
    4.8423   -2.3903    4.8566
    2.9536   -2.2556    3.4891
    2.8878   -0.5003    3.5649
@<BUDE>CONF  18
   -2.4711    3.9320    0.2049
   -3.9297    4.0669   -0.2228
   -4.4580    2.7152   -0.6399
   -4.8652    2.5404   -1.7872
   -4.4829    1.7129    0.2341
   -4.9972    0.3971   -0.1719
   -3.9600   -0.3109   -1.0104
   -3.4485   -1.3133   -0.6087
   -3.6104    0.1890   -2.2147
   -2.6239   -0.5160   -2.9728
   -3.0834   -1.9542   -3.1945
   -1.3162   -0.5171   -2.2177
   -0.7836   -1.5823   -1.9102
   -0.7399    0.6344   -1.8850
    0.4855    0.6350   -1.1776
    1.0971    1.8586   -0.8801
    2.3095    1.9192   -0.1828
    2.8725    0.6954    0.1982
    2.2499   -0.5226   -0.0991
    1.0387   -0.5977   -0.7971
    3.0452   -1.5889    0.3151
    3.8595   -0.8656    1.2416
    4.0433    0.5069    0.8845
    5.1993   -1.5608    1.3021
    5.0960   -3.0706    1.5871
    3.8928   -3.3678    2.5012
    3.5818   -2.1655    3.4119
    3.1331   -0.9379    2.5976
   -1.8806    3.5660   -0.6324
   -2.0943    4.9035    0.5179
   -2.4002    3.2306    1.0336
   -4.0001    4.7573   -1.0607
   -4.5191    4.4447    0.6099
   -4.1487    1.8553    1.1765
   -5.2142   -0.1971    0.7133
   -5.9069    0.5265   -0.7544
   -2.4862   -0.0263   -3.9344
   -3.2328   -2.4390   -2.2321
   -4.0188   -1.9537   -3.7501
   -2.3257   -2.4933   -3.7592
   -1.1772    1.5090   -2.1375
    0.6255    2.7786   -1.1924
    2.7825    2.8624    0.0478
    0.5754   -1.5487   -1.0145
    5.7199   -1.4003    0.3604
    5.7808   -1.0776    2.0845
    6.0077   -3.4120    2.0726
    4.9893   -3.6177    0.6527
    3.0200   -3.5887    1.8903
    4.1022   -4.2433    3.1123
    4.4729   -1.9076    3.9804
    2.8014   -2.4373    4.1196
    2.0612   -0.9925    2.4197
    3.3299   -0.0325    3.1680
@<BUDE>CONF  19
   -0.5748   -6.0123   -0.4123
   -1.6167   -5.7137   -1.4865
   -2.7273   -4.8813   -0.8917
   -2.6856   -4.5555    0.2936
   -3.7512   -4.5000   -1.6501
   -4.8323   -3.6897   -1.0710
   -4.3645   -2.2619   -0.9201
   -4.2481   -1.7823    0.1681
   -4.0775   -1.5268   -2.0154
   -3.6381   -0.1797   -1.8229
   -3.4405    0.4907   -3.1794
   -2.3304   -0.1808   -1.0678
   -1.7978   -1.2460   -0.7603
   -1.7541    0.9707   -0.7351
   -0.5287    0.9713   -0.0277
    0.1316   -0.2442    0.1874
    1.3466   -0.3034    0.8805
    1.8612    0.9135    1.3433
    1.1959    2.1244    1.1179
   -0.0202    2.1975    0.4282
    1.8684    3.1721    1.7431
    3.1325    2.5206    1.8915
    3.0260    1.1022    2.0396
    3.8882    3.1463    3.1721
    4.1276    4.6553    2.9799
    4.9221    4.9169    1.6869
    4.1859    4.3435    0.4618
    3.9282    2.8325    0.6105
   -1.0394   -6.5715    0.3972
    0.2319   -6.6009   -0.8441
   -0.1755   -5.0771   -0.0254
   -2.0270   -6.6479   -1.8642
   -1.1505   -5.1654   -2.3024
   -3.7865   -4.7669   -2.6236
   -5.6997   -3.7189   -1.7271
   -5.1017   -4.0874   -0.0949
   -4.3850    0.3682   -1.2523
   -2.7025   -0.0652   -3.7539
   -4.3857    0.5035   -3.7180
   -3.0926    1.5110   -3.0318
   -2.1914    1.8453   -0.9876
   -0.3019   -1.1588   -0.1895
    1.8574   -1.2403    1.0469
   -0.5154    3.1432    0.2645
    3.3024    2.9799    4.0736
    4.8405    2.6361    3.3014
    4.6856    5.0457    3.8284
    3.1750    5.1790    2.9361
    5.0552    5.9886    1.5545
    5.9089    4.4652    1.7634
    4.7867    4.5149   -0.4290
    3.2387    4.8626    0.3305
    3.3656    2.4741   -0.2488
    4.8783    2.3027    0.6306
@<BUDE>CONF  20
   -1.2893   -5.1812    0.9704
   -2.5574   -4.6195    0.3338
   -2.6085   -5.0194   -1.1214
   -1.7039   -5.6975   -1.6059
   -3.6324   -4.6381   -1.8798
   -4.7135   -3.8278   -1.3007
   -4.2457   -2.4000   -1.1498
   -4.1293   -1.9204   -0.0616
   -3.9587   -1.6649   -2.2451
   -3.5193   -0.3178   -2.0526
   -3.3217    0.3526   -3.4091
   -2.2116   -0.3189   -1.2975
   -1.6790   -1.3841   -0.9900
   -1.6353    0.8326   -0.9648
   -0.4099    0.8332   -0.2574
    0.2504   -0.3823   -0.0423
    1.4654   -0.4415    0.6508
    1.9800    0.7754    1.1136
    1.3147    1.9863    0.8882
    0.0986    2.0594    0.1985
    1.9872    3.0340    1.5134
    3.2513    2.3825    1.6618
    3.1448    0.9641    1.8099
    4.0070    3.0082    2.9424
    4.2464    4.5172    2.7502
    5.0409    4.7788    1.4572
    4.3047    4.2054    0.2321
    4.0470    2.6944    0.3808
   -0.4179   -4.7735    0.4622
   -1.2590   -4.9042    2.0221
   -1.2884   -6.2654    0.8800
   -2.5526   -3.5343    0.4112
   -3.4293   -5.0168    0.8492
   -3.6677   -4.9050   -2.8533
   -5.5809   -3.8570   -1.9568
   -4.9829   -4.2255   -0.3246
   -4.2662    0.2301   -1.4820
   -2.5837   -0.2033   -3.9836
   -4.2669    0.3654   -3.9477
   -2.9738    1.3729   -3.2615
   -2.0726    1.7072   -1.2173
   -0.1831   -1.2969   -0.4192
    1.9762   -1.3784    0.8172
   -0.3966    3.0051    0.0348
    3.4212    2.8418    3.8439
    4.9593    2.4980    3.0717
    4.8044    4.9076    3.5987
    3.2938    5.0409    2.7064
    5.1740    5.8505    1.3248
    6.0277    4.3271    1.5337
    4.9055    4.3768   -0.6587
    3.3575    4.7245    0.1008
    3.4844    2.3360   -0.4785
    4.9971    2.1646    0.4009
@<BUDE>CONF  21
   -3.0776   -4.0710   -3.6163
   -3.7676   -2.8928   -4.2978
   -2.8009   -1.7376   -4.4046
   -2.4909   -1.2941   -5.5091
   -2.2845   -1.1994   -3.3034
   -1.3435   -0.0749   -3.4073
   -2.1063    1.1919   -3.7133
   -1.9419    1.7521   -4.7559
   -2.9744    1.6918   -2.8084
   -3.1378    0.9868   -1.5751
   -4.2094    1.6740   -0.7335
   -1.8301    0.9857   -0.8200
   -1.2975   -0.0795   -0.5125
   -1.2538    2.1372   -0.4873
   -0.0284    2.1378    0.2201
    0.5832    3.3614    0.5176
    1.7956    3.4220    1.2149
    2.3586    2.1982    1.5959
    1.7360    0.9802    1.2986
    0.5248    0.9051    0.6006
    2.5313   -0.0861    1.7128
    3.3456    0.6372    2.6393
    3.5294    2.0097    2.2822
    4.7796   -0.0941    2.7461
    4.6176   -1.5397    3.2515
    3.8842   -1.5608    4.6055
    2.5037   -0.8870    4.4954
    2.6192    0.5649    3.9953
   -2.7661   -3.7786   -2.6157
   -3.7699   -4.9077   -3.5513
   -2.2056   -4.3650   -4.1969
   -4.6316   -2.5888   -3.7107
   -4.0907   -3.1877   -5.2940
   -2.5384   -1.5628   -2.3959
   -0.8112    0.0416   -2.4657
   -0.6307   -0.2701   -4.2057
   -3.4386   -0.0385   -1.7796
   -3.9133    2.7029   -0.5401
   -5.1547    1.6630   -1.2718
   -4.3227    1.1450    0.2105
   -1.6911    3.0118   -0.7398
    0.1116    4.2814    0.2053
    2.2686    4.3652    1.4455
    0.0615   -0.0459    0.3832
    5.2736   -0.0979    1.7769
    5.4095    0.4674    3.4328
    5.5984   -1.9959    3.3683
    4.0600   -2.1263    2.5244
    3.7542   -2.5909    4.9306
    4.4816   -1.0471    5.3558
    2.0260   -0.8886    5.4729
    1.8739   -1.4568    3.8152
    1.6243    0.9906    3.8842
    3.1556    1.1604    4.7310
@<BUDE>CONF  22
   -1.9497   -4.3864   -4.5206
   -3.3860   -4.6904   -4.9371
   -4.3396   -3.9543   -4.0267
   -5.1192   -3.1248   -4.4926
   -4.3367   -4.2032   -2.7202
   -5.2651   -3.4866   -1.8340
   -4.7585   -2.0826   -1.6052
   -5.3839   -1.1477   -2.0088
   -3.5983   -1.8834   -0.9444
   -3.1589   -0.5363   -0.7519
   -2.9613    0.1341   -2.1084
   -1.8512   -0.5374    0.0032
   -1.3186   -1.6026    0.3107
   -1.2749    0.6141    0.3359
   -0.0495    0.6147    1.0433
    0.6108   -0.6008    1.2584
    1.8258   -0.6600    1.9515
    2.3404    0.5569    2.4143
    1.6751    1.7678    2.1889
    0.4590    1.8409    1.4992
    2.3476    2.8155    2.8141
    3.6117    2.1640    2.9625
    3.5052    0.7456    3.1106
    4.3674    2.7897    4.2431
    4.6068    4.2987    4.0509
    5.4013    4.5603    2.7579
    4.6651    3.9869    1.5328
    4.4074    2.4759    1.6815
   -1.7906   -4.7222   -3.4979
   -1.2625   -4.9063   -5.1847
   -1.7740   -3.3145   -4.5825
   -3.5671   -5.7606   -4.8620
   -3.5428   -4.3665   -5.9638
   -3.6971   -4.8842   -2.3365
   -6.2494   -3.4456   -2.2956
   -5.3323   -4.0070   -0.8809
   -3.9058    0.0116   -0.1813
   -2.2233   -0.4218   -2.6829
   -3.9065    0.1469   -2.6470
   -2.6134    1.1544   -1.9608
   -1.7122    1.4887    0.0834
    0.1773   -1.5154    0.8815
    2.3366   -1.5969    2.1179
   -0.0362    2.7866    1.3355
    3.7816    2.6233    5.1446
    5.3197    2.2795    4.3724
    5.1648    4.6891    4.8994
    3.6542    4.8224    4.0071
    5.5344    5.6320    2.6255
    6.3881    4.1086    2.8344
    5.2659    4.1583    0.6420
    3.7179    4.5060    1.4015
    3.8448    2.1175    0.8222
    5.3575    1.9461    1.7016
@<BUDE>CONF  23
   -3.2504   -4.4110   -3.7080
   -3.9404   -3.2328   -4.3895
   -2.9737   -2.0776   -4.4963
   -2.6637   -1.6341   -5.6008
   -2.4573   -1.5394   -3.3951
   -1.5163   -0.4149   -3.4990
   -2.2791    0.8519   -3.8050
   -2.1147    1.4121   -4.8476
   -3.1472    1.3518   -2.9001
   -3.3106    0.6468   -1.6668
   -4.3822    1.3340   -0.8252
   -2.0029    0.6457   -0.9117
   -1.4703   -0.4195   -0.6042
   -1.4266    1.7972   -0.5790
   -0.2012    1.7978    0.1284
    0.3864    3.0223    0.4675
    1.5976    3.0830    1.1669
    2.1847    1.8582    1.5063
    1.5859    0.6390    1.1675
    0.3763    0.5640    0.4669
    2.4022   -0.4248    1.5455
    3.2024    0.2823    2.4963
    3.3591    1.6695    2.1861
    4.6760   -0.3766    2.6111
    5.4709    0.2553    3.7688
    4.7002    0.1151    5.0947
    3.3064    0.7622    4.9934
    2.4781    0.1497    3.8488
   -2.9389   -4.1186   -2.7074
   -3.9427   -5.2477   -3.6430
   -2.3784   -4.7050   -4.2886
   -4.8044   -2.9288   -3.8024
   -4.2635   -3.5277   -5.3857
   -2.7112   -1.9028   -2.4876
   -0.9840   -0.2984   -2.5574
   -0.8035   -0.6101   -4.2974
   -3.6114   -0.3785   -1.8713
   -4.0861    2.3629   -0.6318
   -5.3275    1.3230   -1.3635
   -4.4955    0.8050    0.1188
   -1.8639    2.6718   -0.8315
   -0.1033    3.9430    0.1865
    2.0520    4.0269    1.4296
   -0.0684   -0.3880    0.2172
    4.5959   -1.4506    2.7648
    5.2037   -0.2182    1.6730
    5.6382    1.3102    3.5616
    6.4423   -0.2265    3.8578
    4.5878   -0.9394    5.3382
    5.2625    0.5850    5.8989
    3.4198    1.8299    4.8173
    2.7763    0.6338    5.9348
    2.3027   -0.9046    4.0517
    1.5102    0.6440    3.7966
@<BUDE>CONF  24
   -3.2140   -2.2279   -6.5286
   -2.4877   -1.4393   -5.4427
   -2.8683   -1.9838   -4.0867
   -3.6556   -2.9248   -3.9997
   -2.3519   -1.4456   -2.9855
   -1.4109   -0.3211   -3.0894
   -2.1737    0.9457   -3.3954
   -2.0093    1.5059   -4.4380
   -3.0418    1.4456   -2.4905
   -3.2052    0.7406   -1.2572
   -4.2768    1.4278   -0.4156
   -1.8975    0.7395   -0.5021
   -1.3649   -0.3257   -0.1946
   -1.3212    1.8910   -0.1694
   -0.0958    1.8916    0.5380
    0.5158    3.1152    0.8355
    1.7282    3.1758    1.5328
    2.2912    1.9520    1.9138
    1.6686    0.7340    1.6165
    0.4574    0.6589    0.9185
    2.4639   -0.3323    2.0307
    3.2782    0.3910    2.9572
    3.4620    1.7635    2.6001
    4.7122   -0.3403    3.0640
    4.5502   -1.7859    3.5694
    3.8168   -1.8070    4.9234
    2.4363   -1.1332    4.8133
    2.5518    0.3187    4.3132
   -4.2887   -2.1220   -6.3954
   -2.9296   -1.8442   -7.5061
   -2.9409   -3.2786   -6.4571
   -2.7710   -0.3906   -5.5043
   -1.4128   -1.5342   -5.5822
   -2.6058   -1.8090   -2.0780
   -0.8786   -0.2046   -2.1478
   -0.6981   -0.5163   -3.8878
   -3.5060   -0.2847   -1.4617
   -3.9807    2.4567   -0.2222
   -5.2221    1.4168   -0.9539
   -4.3901    0.8988    0.5284
   -1.7585    2.7656   -0.4219
    0.0442    4.0352    0.5232
    2.2012    4.1190    1.7634
   -0.0059   -0.2921    0.7011
    5.2062   -0.3441    2.0948
    5.3421    0.2212    3.7507
    5.5310   -2.2421    3.6862
    3.9926   -2.3725    2.8423
    3.6868   -2.8371    5.2485
    4.4142   -1.2933    5.6737
    1.9586   -1.1348    5.7908
    1.8065   -1.7030    4.1331
    1.5569    0.7444    4.2021
    3.0882    0.9142    5.0489
@<BUDE>CONF  25
   -3.3868   -2.5678   -6.6203
   -2.6605   -1.7792   -5.5344
   -3.0411   -2.3237   -4.1784
   -3.8284   -3.2647   -4.0914
   -2.5247   -1.7855   -3.0772
   -1.5837   -0.6610   -3.1811
   -2.3465    0.6058   -3.4871
   -2.1821    1.1660   -4.5297
   -3.2146    1.1057   -2.5822
   -3.3780    0.4007   -1.3489
   -4.4496    1.0879   -0.5073
   -2.0703    0.3996   -0.5938
   -1.5377   -0.6656   -0.2863
   -1.4940    1.5511   -0.2611
   -0.2686    1.5517    0.4463
    0.3190    2.7762    0.7854
    1.5302    2.8369    1.4848
    2.1173    1.6121    1.8242
    1.5185    0.3929    1.4854
    0.3089    0.3179    0.7848
    2.3348   -0.6709    1.8634
    3.1350    0.0362    2.8142
    3.2917    1.4234    2.5040
    4.6086   -0.6227    2.9290
    5.4035    0.0092    4.0867
    4.6328   -0.1310    5.4126
    3.2390    0.5161    5.3113
    2.4107   -0.0964    4.1667
   -4.4615   -2.4619   -6.4871
   -3.1024   -2.1841   -7.5978
   -3.1137   -3.6185   -6.5488
   -2.9438   -0.7305   -5.5960
   -1.5856   -1.8741   -5.6739
   -2.7786   -2.1489   -2.1697
   -1.0514   -0.5445   -2.2395
   -0.8709   -0.8562   -3.9795
   -3.6788   -0.6246   -1.5534
   -4.1535    2.1168   -0.3139
   -5.3949    1.0769   -1.0456
   -4.5629    0.5589    0.4367
   -1.9313    2.4257   -0.5136
   -0.1707    3.6969    0.5044
    1.9846    3.7808    1.7475
   -0.1358   -0.6341    0.5351
    4.5285   -1.6967    3.0827
    5.1363   -0.4643    1.9909
    5.5708    1.0641    3.8795
    6.3749   -0.4726    4.1757
    4.5204   -1.1855    5.6561
    5.1951    0.3389    6.2168
    3.3524    1.5838    5.1352
    2.7089    0.3877    6.2527
    2.2353   -1.1507    4.3696
    1.4428    0.3979    4.1145
@<BUDE>CONF  26
   -0.7289   -5.8541   -0.4328
   -1.7708   -5.5555   -1.5070
   -2.8814   -4.7231   -0.9122
   -2.8397   -4.3973    0.2731
   -3.9053   -4.3418   -1.6706
   -4.9864   -3.5315   -1.0915
   -4.5186   -2.1037   -0.9406
   -4.4022   -1.6241    0.1476
   -4.2316   -1.3686   -2.0359
   -3.7922   -0.0215   -1.8434
   -3.5946    0.6489   -3.1999
   -2.4845   -0.0226   -1.0883
   -1.9519   -1.0878   -0.7808
   -1.9082    1.1289   -0.7556
   -0.6828    1.1295   -0.0482
   -0.0225   -0.0860    0.1669
    1.1925   -0.1452    0.8600
    1.7071    1.0717    1.3228
    1.0418    2.2826    1.0974
   -0.1743    2.3557    0.4077
    1.7143    3.3303    1.7226
    2.9784    2.6788    1.8710
    2.8719    1.2604    2.0191
    3.7526    3.2094    3.1272
    4.5476    4.4841    2.7891
    5.6836    4.1669    1.7989
    5.2901    3.0114    0.8600
    3.7741    2.9907    0.5900
   -1.1935   -6.4133    0.3767
    0.0778   -6.4427   -0.8646
   -0.3296   -4.9189   -0.0459
   -2.1811   -6.4897   -1.8847
   -1.3046   -5.0072   -2.3229
   -3.9406   -4.6087   -2.6441
   -5.8538   -3.5607   -1.7476
   -5.2558   -3.9292   -0.1154
   -4.5391    0.5264   -1.2728
   -2.8566    0.0930   -3.7744
   -4.5398    0.6617   -3.7385
   -3.2467    1.6692   -3.0523
   -2.3455    2.0035   -1.0081
   -0.4560   -1.0006   -0.2100
    1.7033   -1.0821    1.0264
   -0.6695    3.3014    0.2440
    3.0552    3.4161    3.9362
    4.4321    2.4323    3.4709
    4.9723    4.8999    3.7003
    3.8844    5.2310    2.3577
    5.9032    5.0514    1.2046
    6.5854    3.9006    2.3463
    5.5826    2.0667    1.3134
    5.8258    3.1095   -0.0820
    3.4602    3.9600    0.2085
    3.5513    2.2457   -0.1709
@<BUDE>CONF  27
   -0.7542   -5.6366   -0.4737
   -1.7961   -5.3380   -1.5479
   -2.9067   -4.5056   -0.9531
   -2.8650   -4.1798    0.2322
   -3.9306   -4.1243   -1.7115
   -5.0117   -3.3140   -1.1324
   -4.5439   -1.8862   -0.9815
   -4.4275   -1.4066    0.1067
   -4.2569   -1.1511   -2.0768
   -3.8175    0.1960   -1.8843
   -3.6199    0.8664   -3.2408
   -2.5098    0.1949   -1.1292
   -1.9772   -0.8703   -0.8217
   -1.9335    1.3464   -0.7965
   -0.7081    1.3470   -0.0891
   -0.0478    0.1315    0.1260
    1.1672    0.0723    0.8191
    1.6818    1.2892    1.2819
    1.0165    2.5001    1.0565
   -0.1996    2.5732    0.3668
    1.6890    3.5478    1.6817
    2.9531    2.8963    1.8301
    2.8466    1.4779    1.9782
    3.6759    3.4233    3.0562
    5.0333    2.7374    3.2975
    5.6861    2.3432    1.9596
    5.2592    3.3033    0.8337
    3.7488    3.2082    0.5491
   -1.2188   -6.1958    0.3358
    0.0525   -6.2252   -0.9055
   -0.3549   -4.7014   -0.0868
   -2.2064   -6.2722   -1.9256
   -1.3299   -4.7897   -2.3638
   -3.9659   -4.3912   -2.6850
   -5.8791   -3.3432   -1.7885
   -5.2811   -3.7117   -0.1563
   -4.5644    0.7439   -1.3137
   -2.8819    0.3105   -3.8153
   -4.5651    0.8792   -3.7794
   -3.2720    1.8867   -3.0932
   -2.3708    2.2210   -1.0490
   -0.4813   -0.7831   -0.2509
    1.6780   -0.8646    0.9855
   -0.6948    3.5189    0.2031
    3.8213    4.4960    2.9482
    3.0261    3.2655    3.9144
    4.8870    1.8445    3.9016
    5.6947    3.4066    3.8440
    6.7689    2.3723    2.0628
    5.4033    1.3258    1.6977
    5.8074    3.0570   -0.0733
    5.5135    4.3245    1.1104
    3.3969    4.1519    0.1378
    3.5676    2.4337   -0.1932
@<BUDE>CONF  28
   -3.2179   -4.4426   -3.7130
   -3.9079   -3.2644   -4.3945
   -2.9412   -2.1092   -4.5013
   -2.6312   -1.6657   -5.6058
   -2.4248   -1.5710   -3.4001
   -1.4838   -0.4465   -3.5040
   -2.2466    0.8203   -3.8100
   -2.0822    1.3805   -4.8526
   -3.1147    1.3202   -2.9051
   -3.2781    0.6152   -1.6718
   -4.3497    1.3024   -0.8302
   -1.9704    0.6141   -0.9167
   -1.4378   -0.4511   -0.6092
   -1.3941    1.7656   -0.5840
   -0.1687    1.7662    0.1234
    0.4429    2.9898    0.4209
    1.6553    3.0504    1.1182
    2.2183    1.8266    1.4992
    1.5957    0.6086    1.2019
    0.3845    0.5335    0.5039
    2.3910   -0.4577    1.6161
    3.2053    0.2656    2.5426
    3.3891    1.6381    2.1855
    4.5866   -0.4386    2.6502
    5.1728   -0.3692    4.0725
    4.7547    0.9401    4.7671
    3.2306    0.9874    4.9829
    2.4789    0.1933    3.8986
   -2.9064   -4.1502   -2.7124
   -3.9102   -5.2793   -3.6480
   -2.3459   -4.7366   -4.2936
   -4.7719   -2.9604   -3.8074
   -4.2310   -3.5593   -5.3907
   -2.6787   -1.9344   -2.4926
   -0.9515   -0.3300   -2.5624
   -0.7710   -0.6417   -4.3024
   -3.5789   -0.4101   -1.8763
   -4.0536    2.3313   -0.6368
   -5.2950    1.2914   -1.3685
   -4.4630    0.7734    0.1138
   -1.8314    2.6402   -0.8365
   -0.0287    3.9098    0.1086
    2.1283    3.9936    1.3488
   -0.0788   -0.4175    0.2865
    4.4859   -1.4781    2.3455
    5.2640    0.0442    1.9490
    6.2585   -0.4163    4.0207
    4.8283   -1.2195    4.6572
    5.2546    1.0143    5.7306
    5.0639    1.7915    4.1644
    2.8980    2.0231    4.9588
    2.9892    0.5821    5.9634
    2.4010   -0.8489    4.2005
    1.4695    0.5861    3.7955
@<BUDE>CONF  29
   -4.7601   -3.0511   -6.0092
   -4.9608   -3.1445   -4.4993
   -4.0038   -4.1630   -3.9274
   -3.2270   -4.7625   -4.6689
   -4.0009   -4.4119   -2.6209
   -4.9293   -3.6953   -1.7347
   -4.4227   -2.2913   -1.5059
   -5.0481   -1.3564   -1.9095
   -3.2625   -2.0921   -0.8451
   -2.8231   -0.7450   -0.6526
   -2.6255   -0.0746   -2.0091
   -1.5154   -0.7461    0.1025
   -0.9828   -1.8113    0.4100
   -0.9391    0.4054    0.4352
    0.2863    0.4060    1.1426
    0.9466   -0.8095    1.3577
    2.1616   -0.8687    2.0508
    2.6762    0.3482    2.5136
    2.0109    1.5591    2.2882
    0.7948    1.6322    1.5985
    2.6834    2.6068    2.9134
    3.9475    1.9553    3.0618
    3.8410    0.5369    3.2099
    4.7032    2.5810    4.3424
    4.9426    4.0900    4.1502
    5.7371    4.3516    2.8572
    5.0009    3.7782    1.6321
    4.7432    2.2672    1.7808
   -4.9639   -4.0192   -6.4621
   -5.4405   -2.3078   -6.4195
   -3.7334   -2.7599   -6.2206
   -5.9834   -3.4494   -4.2870
   -4.7695   -2.1739   -4.0466
   -3.3613   -5.0929   -2.2372
   -5.9136   -3.6543   -2.1963
   -4.9965   -4.2157   -0.7816
   -3.5700   -0.1971   -0.0820
   -1.8875   -0.6305   -2.5836
   -3.5707   -0.0618   -2.5477
   -2.2776    0.9457   -1.8615
   -1.3764    1.2800    0.1827
    0.5131   -1.7241    0.9808
    2.6724   -1.8056    2.2172
    0.2996    2.5779    1.4348
    4.1174    2.4146    5.2439
    5.6555    2.0708    4.4717
    5.5006    4.4804    4.9987
    3.9900    4.6137    4.1064
    5.8702    5.4233    2.7248
    6.7239    3.8999    2.9337
    5.6017    3.9496    0.7413
    4.0537    4.2973    1.5008
    4.1806    1.9088    0.9215
    5.6933    1.7374    1.8009
@<BUDE>CONF  30
   -3.1733   -4.2121   -3.7077
   -3.8633   -3.0339   -4.3892
   -2.8966   -1.8787   -4.4960
   -2.5866   -1.4352   -5.6005
   -2.3802   -1.3405   -3.3948
   -1.4392   -0.2160   -3.4987
   -2.2020    1.0508   -3.8047
   -2.0376    1.6110   -4.8473
   -3.0701    1.5507   -2.8998
   -3.2335    0.8457   -1.6665
   -4.3051    1.5329   -0.8249
   -1.9258    0.8446   -0.9114
   -1.3932   -0.2206   -0.6039
   -1.3495    1.9961   -0.5787
   -0.1241    1.9967    0.1287
    0.4875    3.2203    0.4262
    1.6999    3.2809    1.1235
    2.2629    2.0571    1.5045
    1.6403    0.8391    1.2072
    0.4291    0.7640    0.5092
    2.4356   -0.2272    1.6214
    3.2499    0.4961    2.5479
    3.4337    1.8686    2.1908
    4.6172   -0.2501    2.6246
    5.2367   -0.1186    4.0283
    4.3845   -0.8690    5.0686
    2.8958   -0.8565    4.6744
    2.5235    0.4238    3.9039
   -2.8618   -3.9197   -2.7071
   -3.8656   -5.0488   -3.6427
   -2.3013   -4.5061   -4.2883
   -4.7273   -2.7299   -3.8021
   -4.1864   -3.3288   -5.3854
   -2.6341   -1.7039   -2.4873
   -0.9069   -0.0995   -2.5571
   -0.7264   -0.4112   -4.2971
   -3.5343   -0.1796   -1.8710
   -4.0090    2.5618   -0.6315
   -5.2504    1.5219   -1.3632
   -4.4184    1.0039    0.1191
   -1.7868    2.8707   -0.8312
    0.0159    4.1403    0.1139
    2.1729    4.2241    1.3541
   -0.0342   -0.1870    0.2918
    4.4848   -1.3017    2.3794
    5.2901    0.1768    1.8840
    5.2940    0.9325    4.3032
    6.2480   -0.5196    4.0261
    4.7264   -1.8993    5.1412
    4.5064   -0.4075    6.0463
    2.2871   -0.9187    5.5741
    2.6745   -1.7274    4.0608
    1.4499    0.4428    3.7290
    2.7783    1.2951    4.5035
@<BUDE>CONF  31
   -1.4435   -5.0230    0.9499
   -2.7116   -4.4613    0.3133
   -2.7627   -4.8612   -1.1419
   -1.8581   -5.5393   -1.6264
   -3.7866   -4.4799   -1.9003
   -4.8677   -3.6696   -1.3212
   -4.3999   -2.2418   -1.1703
   -4.2835   -1.7622   -0.0821
   -4.1129   -1.5067   -2.2656
   -3.6735   -0.1596   -2.0731
   -3.4759    0.5108   -3.4296
   -2.3658   -0.1607   -1.3180
   -1.8332   -1.2259   -1.0105
   -1.7895    0.9908   -0.9853
   -0.5641    0.9914   -0.2779
    0.0962   -0.2241   -0.0628
    1.3112   -0.2833    0.6303
    1.8258    0.9336    1.0931
    1.1605    2.1445    0.8677
   -0.0556    2.2176    0.1780
    1.8330    3.1922    1.4929
    3.0971    2.5407    1.6413
    2.9906    1.1223    1.7894
    3.8713    3.0713    2.8975
    4.6663    4.3460    2.5594
    5.8023    4.0288    1.5692
    5.4088    2.8733    0.6303
    3.8928    2.8526    0.3603
   -0.5721   -4.6153    0.4417
   -1.4132   -4.7460    2.0016
   -1.4426   -6.1072    0.8595
   -2.7068   -3.3761    0.3907
   -3.5835   -4.8586    0.8287
   -3.8219   -4.7468   -2.8738
   -5.7351   -3.6988   -1.9773
   -5.1371   -4.0673   -0.3451
   -4.4204    0.3883   -1.5025
   -2.7379   -0.0451   -4.0041
   -4.4211    0.5236   -3.9682
   -3.1280    1.5311   -3.2820
   -2.2268    1.8654   -1.2378
   -0.3373   -1.1387   -0.4397
    1.8220   -1.2202    0.7967
   -0.5508    3.1633    0.0143
    3.1739    3.2780    3.7065
    4.5508    2.2942    3.2412
    5.0910    4.7618    3.4706
    4.0031    5.0929    2.1280
    6.0219    4.9133    0.9749
    6.7041    3.7625    2.1166
    5.7013    1.9286    1.0837
    5.9445    2.9714   -0.3117
    3.5789    3.8219   -0.0212
    3.6700    2.1076   -0.4006
@<BUDE>CONF  32
   -1.4688   -4.8055    0.9090
   -2.7369   -4.2438    0.2724
   -2.7880   -4.6437   -1.1828
   -1.8834   -5.3218   -1.6673
   -3.8119   -4.2624   -1.9412
   -4.8930   -3.4521   -1.3621
   -4.4252   -2.0243   -1.2112
   -4.3088   -1.5447   -0.1230
   -4.1382   -1.2892   -2.3065
   -3.6988    0.0579   -2.1140
   -3.5012    0.7283   -3.4705
   -2.3911    0.0568   -1.3589
   -1.8585   -1.0084   -1.0514
   -1.8148    1.2083   -1.0262
   -0.5894    1.2089   -0.3188
    0.0709   -0.0066   -0.1037
    1.2859   -0.0658    0.5894
    1.8005    1.1511    1.0522
    1.1352    2.3620    0.8268
   -0.0809    2.4351    0.1371
    1.8077    3.4097    1.4520
    3.0718    2.7582    1.6004
    2.9653    1.3398    1.7485
    3.7946    3.2852    2.8265
    5.1520    2.5993    3.0678
    5.8048    2.2051    1.7299
    5.3779    3.1652    0.6040
    3.8675    3.0701    0.3194
   -0.5974   -4.3978    0.4008
   -1.4385   -4.5285    1.9607
   -1.4679   -5.8897    0.8186
   -2.7321   -3.1586    0.3498
   -3.6088   -4.6411    0.7878
   -3.8472   -4.5293   -2.9147
   -5.7604   -3.4813   -2.0182
   -5.1624   -3.8498   -0.3860
   -4.4457    0.6058   -1.5434
   -2.7632    0.1724   -4.0450
   -4.4464    0.7411   -4.0091
   -3.1533    1.7486   -3.3229
   -2.2521    2.0829   -1.2787
   -0.3626   -0.9212   -0.4806
    1.7967   -1.0027    0.7558
   -0.5761    3.3808   -0.0266
    3.9400    4.3579    2.7185
    3.1448    3.1274    3.6847
    5.0057    1.7064    3.6719
    5.8134    3.2685    3.6143
    6.8876    2.2342    1.8331
    5.5220    1.1877    1.4680
    5.9261    2.9189   -0.3030
    5.6322    4.1864    0.8807
    3.5156    4.0138   -0.0919
    3.6863    2.2956   -0.4229
@<BUDE>CONF  33
   -3.3543   -2.5995   -6.6253
   -2.6280   -1.8109   -5.5394
   -3.0086   -2.3554   -4.1834
   -3.7959   -3.2964   -4.0964
   -2.4922   -1.8172   -3.0822
   -1.5512   -0.6927   -3.1861
   -2.3140    0.5741   -3.4921
   -2.1496    1.1343   -4.5347
   -3.1821    1.0740   -2.5872
   -3.3455    0.3690   -1.3539
   -4.4171    1.0562   -0.5123
   -2.0378    0.3679   -0.5988
   -1.5052   -0.6973   -0.2913
   -1.4615    1.5194   -0.2661
   -0.2361    1.5200    0.4413
    0.3755    2.7436    0.7388
    1.5879    2.8042    1.4361
    2.1509    1.5804    1.8171
    1.5283    0.3624    1.5198
    0.3171    0.2873    0.8218
    2.3236   -0.7039    1.9340
    3.1379    0.0194    2.8605
    3.3217    1.3919    2.5034
    4.5192   -0.6848    2.9681
    5.1054   -0.6154    4.3904
    4.6873    0.6939    5.0850
    3.1632    0.7412    5.3008
    2.4115   -0.0529    4.2165
   -4.4290   -2.4936   -6.4921
   -3.0699   -2.2158   -7.6028
   -3.0812   -3.6502   -6.5538
   -2.9113   -0.7622   -5.6010
   -1.5531   -1.9058   -5.6789
   -2.7461   -2.1806   -2.1747
   -1.0189   -0.5762   -2.2445
   -0.8384   -0.8879   -3.9845
   -3.6463   -0.6563   -1.5584
   -4.1210    2.0851   -0.3189
   -5.3624    1.0452   -1.0506
   -4.5304    0.5272    0.4317
   -1.8988    2.3940   -0.5186
   -0.0961    3.6636    0.4265
    2.0609    3.7474    1.6667
   -0.1462   -0.6637    0.6044
    4.4185   -1.7243    2.6634
    5.1966   -0.2020    2.2669
    6.1911   -0.6625    4.3386
    4.7609   -1.4657    4.9751
    5.1872    0.7681    6.0485
    4.9965    1.5453    4.4823
    2.8306    1.7769    5.2767
    2.9218    0.3359    6.2813
    2.3336   -1.0951    4.5184
    1.4021    0.3399    4.1134
@<BUDE>CONF  34
   -2.1039   -4.2282   -4.5411
   -3.5402   -4.5322   -4.9576
   -4.4938   -3.7961   -4.0472
   -5.2734   -2.9666   -4.5131
   -4.4909   -4.0450   -2.7407
   -5.4193   -3.3284   -1.8545
   -4.9127   -1.9244   -1.6257
   -5.5381   -0.9895   -2.0293
   -3.7525   -1.7252   -0.9649
   -3.3131   -0.3781   -0.7724
   -3.1155    0.2923   -2.1289
   -2.0054   -0.3792   -0.0173
   -1.4728   -1.4444    0.2902
   -1.4291    0.7723    0.3154
   -0.2037    0.7729    1.0228
    0.4566   -0.4426    1.2379
    1.6716   -0.5018    1.9310
    2.1862    0.7151    2.3938
    1.5209    1.9260    2.1684
    0.3048    1.9991    1.4787
    2.1934    2.9737    2.7936
    3.4575    2.3222    2.9420
    3.3510    0.9038    3.0901
    4.2317    2.8528    4.1982
    5.0267    4.1275    3.8601
    6.1627    3.8103    2.8699
    5.7692    2.6548    1.9310
    4.2532    2.6341    1.6610
   -1.9448   -4.5640   -3.5184
   -1.4167   -4.7481   -5.2052
   -1.9282   -3.1563   -4.6030
   -3.7213   -5.6024   -4.8825
   -3.6970   -4.2083   -5.9843
   -3.8513   -4.7260   -2.3570
   -6.4036   -3.2874   -2.3161
   -5.4865   -3.8488   -0.9014
   -4.0600    0.1698   -0.2018
   -2.3775   -0.2636   -2.7034
   -4.0607    0.3051   -2.6675
   -2.7676    1.3126   -1.9813
   -1.8664    1.6469    0.0629
    0.0231   -1.3572    0.8610
    2.1824   -1.4387    2.0974
   -0.1904    2.9448    1.3150
    3.5343    3.0595    5.0072
    4.9112    2.0757    4.5419
    5.4514    4.5433    4.7713
    4.3635    4.8744    3.4287
    6.3823    4.6948    2.2756
    7.0645    3.5440    3.4173
    6.0617    1.7101    2.3844
    6.3049    2.7529    0.9890
    3.9393    3.6034    1.2795
    4.0304    1.8891    0.9001
@<BUDE>CONF  35
   -3.3097   -2.3690   -6.6199
   -2.5834   -1.5804   -5.5340
   -2.9640   -2.1249   -4.1780
   -3.7513   -3.0659   -4.0910
   -2.4476   -1.5867   -3.0768
   -1.5066   -0.4622   -3.1807
   -2.2694    0.8046   -3.4867
   -2.1050    1.3648   -4.5293
   -3.1375    1.3045   -2.5818
   -3.3009    0.5995   -1.3485
   -4.3725    1.2867   -0.5069
   -1.9932    0.5984   -0.5934
   -1.4606   -0.4668   -0.2859
   -1.4169    1.7499   -0.2607
   -0.1915    1.7505    0.4467
    0.4201    2.9741    0.7442
    1.6325    3.0347    1.4415
    2.1955    1.8109    1.8225
    1.5729    0.5929    1.5252
    0.3617    0.5178    0.8272
    2.3682   -0.4734    1.9394
    3.1825    0.2499    2.8659
    3.3663    1.6224    2.5088
    4.5498   -0.4963    2.9426
    5.1693   -0.3648    4.3463
    4.3171   -1.1152    5.3866
    2.8284   -1.1027    4.9924
    2.4561    0.1776    4.2219
   -4.3844   -2.2631   -6.4867
   -3.0253   -1.9853   -7.5974
   -3.0366   -3.4197   -6.5484
   -2.8667   -0.5317   -5.5956
   -1.5085   -1.6753   -5.6735
   -2.7015   -1.9501   -2.1693
   -0.9743   -0.3457   -2.2391
   -0.7938   -0.6574   -3.9791
   -3.6017   -0.4258   -1.5530
   -4.0764    2.3156   -0.3135
   -5.3178    1.2757   -1.0452
   -4.4858    0.7577    0.4371
   -1.8542    2.6245   -0.5132
   -0.0515    3.8941    0.4319
    2.1055    3.9779    1.6721
   -0.1016   -0.4332    0.6098
    4.4174   -1.5479    2.6974
    5.2227   -0.0694    2.2020
    5.2266    0.6863    4.6212
    6.1806   -0.7658    4.3441
    4.6590   -2.1455    5.4592
    4.4390   -0.6537    6.3643
    2.2197   -1.1649    5.8921
    2.6071   -1.9736    4.3788
    1.3825    0.1966    4.0470
    2.7109    1.0489    4.8215
@<BUDE>CONF  36
   -2.1292   -4.0107   -4.5820
   -3.5655   -4.3147   -4.9985
   -4.5191   -3.5786   -4.0881
   -5.2987   -2.7491   -4.5540
   -4.5162   -3.8275   -2.7816
   -5.4446   -3.1109   -1.8954
   -4.9380   -1.7069   -1.6666
   -5.5634   -0.7720   -2.0702
   -3.7778   -1.5077   -1.0058
   -3.3384   -0.1606   -0.8133
   -3.1408    0.5098   -2.1698
   -2.0307   -0.1617   -0.0582
   -1.4981   -1.2269    0.2493
   -1.4544    0.9898    0.2745
   -0.2290    0.9904    0.9819
    0.4313   -0.2251    1.1970
    1.6463   -0.2843    1.8901
    2.1609    0.9326    2.3529
    1.4956    2.1435    2.1275
    0.2795    2.2166    1.4378
    2.1681    3.1912    2.7527
    3.4322    2.5397    2.9011
    3.3257    1.1213    3.0492
    4.1550    3.0667    4.1272
    5.5124    2.3808    4.3685
    6.1652    1.9866    3.0306
    5.7383    2.9467    1.9047
    4.2279    2.8516    1.6201
   -1.9701   -4.3465   -3.5593
   -1.4420   -4.5306   -5.2461
   -1.9535   -2.9388   -4.6439
   -3.7466   -5.3849   -4.9234
   -3.7223   -3.9908   -6.0252
   -3.8766   -4.5085   -2.3979
   -6.4289   -3.0699   -2.3570
   -5.5118   -3.6313   -0.9423
   -4.0853    0.3873   -0.2427
   -2.4028   -0.0461   -2.7443
   -4.0860    0.5226   -2.7084
   -2.7929    1.5301   -2.0222
   -1.8917    1.8644    0.0220
   -0.0022   -1.1397    0.8201
    2.1571   -1.2212    2.0565
   -0.2157    3.1623    1.2741
    4.3004    4.1394    4.0192
    3.5052    2.9089    4.9854
    5.3661    1.4879    4.9726
    6.1738    3.0500    4.9150
    7.2480    2.0157    3.1338
    5.8824    0.9692    2.7687
    6.2865    2.7004    0.9977
    5.9926    3.9679    2.1814
    3.8760    3.7953    1.2088
    4.0467    2.0771    0.8778
@<BUDE>CONF  37
   -3.3862   -2.6048   -6.6019
   -2.6599   -1.8162   -5.5160
   -3.0405   -2.3607   -4.1600
   -3.8278   -3.3017   -4.0730
   -2.5241   -1.8225   -3.0588
   -1.5831   -0.6980   -3.1627
   -2.3459    0.5688   -3.4687
   -2.1815    1.1290   -4.5113
   -3.2140    1.0687   -2.5638
   -3.3774    0.3637   -1.3305
   -4.4490    1.0509   -0.4889
   -2.0697    0.3626   -0.5754
   -1.5371   -0.7026   -0.2679
   -1.4934    1.5141   -0.2427
   -0.2680    1.5147    0.4647
    0.3436    2.7383    0.7622
    1.5560    2.7989    1.4595
    2.1190    1.5751    1.8405
    1.4964    0.3571    1.5432
    0.2852    0.2820    0.8452
    2.2917   -0.7092    1.9574
    3.1060    0.0141    2.8839
    3.2898    1.3866    2.5268
    4.4841   -0.6150    2.9757
    5.4280    0.1369    3.9322
    4.6355    0.7585    5.0972
    3.3772   -0.0714    5.4129
    2.3796   -0.0582    4.2399
   -4.4609   -2.4989   -6.4687
   -3.1018   -2.2211   -7.5794
   -3.1131   -3.6555   -6.5304
   -2.9432   -0.7675   -5.5776
   -1.5850   -1.9111   -5.6555
   -2.7780   -2.1859   -2.1513
   -1.0508   -0.5815   -2.2211
   -0.8703   -0.8932   -3.9611
   -3.6782   -0.6616   -1.5350
   -4.1529    2.0798   -0.2955
   -5.3943    1.0399   -1.0272
   -4.5623    0.5219    0.4551
   -1.9307    2.3887   -0.4952
   -0.1280    3.6583    0.4499
    2.0290    3.7421    1.6901
   -0.1781   -0.6690    0.6278
    4.3811   -1.6485    3.2996
    4.9080   -0.6263    1.9738
    5.9435    0.9257    3.3885
    6.1793   -0.5456    4.3241
    5.2668    0.8013    5.9823
    4.3466    1.7765    4.8441
    2.8914    0.3377    6.2964
    3.6641   -1.0972    5.6347
    1.7754   -0.9625    4.2672
    1.7096    0.7928    4.3430
@<BUDE>CONF  38
   -2.7776    2.2257    0.6915
   -4.2362    2.3606    0.2638
   -4.7645    1.0089   -0.1533
   -5.1717    0.8341   -1.3006
   -4.7894    0.0066    0.7207
   -5.3037   -1.3092    0.3147
   -4.2665   -2.0172   -0.5238
   -3.7550   -3.0196   -0.1221
   -3.9169   -1.5173   -1.7281
   -2.9304   -2.2223   -2.4862
   -3.3899   -3.6605   -2.7079
   -1.6227   -2.2234   -1.7311
   -1.0901   -3.2886   -1.4236
   -1.0464   -1.0719   -1.3984
    0.1790   -1.0713   -0.6910
    0.8393   -2.2868   -0.4759
    2.0543   -2.3460    0.2172
    2.5689   -1.1291    0.6800
    1.9036    0.0818    0.4546
    0.6875    0.1549   -0.2351
    2.5761    1.1295    1.0798
    3.8402    0.4780    1.2282
    3.7337   -0.9404    1.3763
    4.5959    1.1037    2.5088
    4.8353    2.6127    2.3166
    5.6298    2.8743    1.0236
    4.8936    2.3009   -0.2015
    4.6359    0.7899   -0.0528
   -2.1871    1.8597   -0.1458
   -2.4008    3.1972    1.0045
   -2.7067    1.5243    1.5202
   -4.3066    3.0510   -0.5741
   -4.8256    2.7384    1.0965
   -4.4552    0.1490    1.6631
   -5.5207   -1.9034    1.1999
   -6.2134   -1.1798   -0.2678
   -2.7927   -1.7326   -3.4478
   -3.5393   -4.1453   -1.7455
   -4.3253   -3.6600   -3.2635
   -2.6322   -4.1996   -3.2726
   -1.4837   -0.1973   -1.6509
    0.4058   -3.2014   -0.8528
    2.5651   -3.2829    0.3836
    0.1923    1.1006   -0.3988
    4.0101    0.9373    3.4103
    5.5482    0.5935    2.6381
    5.3933    3.0031    3.1651
    3.8827    3.1364    2.2728
    5.7629    3.9460    0.8912
    6.6166    2.4226    1.1001
    5.4944    2.4723   -1.0923
    3.9464    2.8200   -0.3328
    4.0733    0.4315   -0.9121
    5.5860    0.2601   -0.0327
@<BUDE>CONF  39
   -4.9143   -2.8930   -6.0296
   -5.1150   -2.9864   -4.5197
   -4.1580   -4.0049   -3.9478
   -3.3812   -4.6044   -4.6893
   -4.1551   -4.2538   -2.6413
   -5.0835   -3.5372   -1.7551
   -4.5769   -2.1332   -1.5263
   -5.2023   -1.1983   -1.9299
   -3.4167   -1.9340   -0.8655
   -2.9773   -0.5869   -0.6730
   -2.7797    0.0835   -2.0295
   -1.6696   -0.5880    0.0821
   -1.1370   -1.6532    0.3896
   -1.0933    0.5635    0.4148
    0.1321    0.5641    1.1222
    0.7924   -0.6514    1.3373
    2.0074   -0.7106    2.0304
    2.5220    0.5063    2.4932
    1.8567    1.7172    2.2678
    0.6406    1.7903    1.5781
    2.5292    2.7649    2.8930
    3.7933    2.1134    3.0414
    3.6868    0.6950    3.1895
    4.5675    2.6440    4.2976
    5.3625    3.9187    3.9595
    6.4985    3.6015    2.9693
    6.1050    2.4460    2.0304
    4.5890    2.4253    1.7604
   -5.1181   -3.8611   -6.4825
   -5.5947   -2.1497   -6.4399
   -3.8876   -2.6018   -6.2410
   -6.1376   -3.2913   -4.3074
   -4.9237   -2.0158   -4.0670
   -3.5155   -4.9348   -2.2576
   -6.0678   -3.4962   -2.2167
   -5.1507   -4.0576   -0.8020
   -3.7242   -0.0390   -0.1024
   -2.0417   -0.4724   -2.6040
   -3.7249    0.0963   -2.5681
   -2.4318    1.1038   -1.8819
   -1.5306    1.4381    0.1623
    0.3589   -1.5660    0.9604
    2.5182   -1.6475    2.1968
    0.1454    2.7360    1.4144
    3.8701    2.8507    5.1066
    5.2470    1.8669    4.6413
    5.7872    4.3345    4.8707
    4.6993    4.6656    3.5281
    6.7181    4.4860    2.3750
    7.4003    3.3352    3.5167
    6.3975    1.5013    2.4838
    6.6407    2.5441    1.0884
    4.2751    3.3946    1.3789
    4.3662    1.6803    0.9995
@<BUDE>CONF  40
   -4.9396   -2.6755   -6.0706
   -5.1403   -2.7689   -4.5607
   -4.1833   -3.7874   -3.9888
   -3.4065   -4.3869   -4.7303
   -4.1804   -4.0363   -2.6823
   -5.1088   -3.3197   -1.7961
   -4.6022   -1.9157   -1.5673
   -5.2276   -0.9808   -1.9709
   -3.4420   -1.7165   -0.9065
   -3.0026   -0.3694   -0.7140
   -2.8050    0.3010   -2.0705
   -1.6949   -0.3705    0.0411
   -1.1623   -1.4357    0.3486
   -1.1186    0.7810    0.3738
    0.1068    0.7816    1.0812
    0.7671   -0.4339    1.2963
    1.9821   -0.4931    1.9894
    2.4967    0.7238    2.4522
    1.8314    1.9347    2.2268
    0.6153    2.0078    1.5371
    2.5039    2.9824    2.8520
    3.7680    2.3309    3.0004
    3.6615    0.9125    3.1485
    4.4908    2.8579    4.2265
    5.8482    2.1720    4.4678
    6.5010    1.7778    3.1299
    6.0741    2.7379    2.0040
    4.5637    2.6428    1.7194
   -5.1434   -3.6436   -6.5235
   -5.6200   -1.9322   -6.4809
   -3.9129   -2.3843   -6.2820
   -6.1629   -3.0738   -4.3484
   -4.9490   -1.7983   -4.1080
   -3.5408   -4.7173   -2.2986
   -6.0931   -3.2787   -2.2577
   -5.1760   -3.8401   -0.8430
   -3.7495    0.1785   -0.1434
   -2.0670   -0.2549   -2.6450
   -3.7502    0.3138   -2.6091
   -2.4571    1.3213   -1.9229
   -1.5559    1.6556    0.1213
    0.3336   -1.3485    0.9194
    2.4929   -1.4300    2.1558
    0.1201    2.9535    1.3734
    4.6362    3.9306    4.1185
    3.8410    2.7001    5.0847
    5.7019    1.2791    5.0719
    6.5096    2.8412    5.0143
    7.5838    1.8069    3.2331
    6.2182    0.7604    2.8680
    6.6223    2.4916    1.0970
    6.3284    3.7591    2.2807
    4.2118    3.5865    1.3081
    4.3825    1.8683    0.9771
@<BUDE>CONF  41
   -2.9317    2.3839    0.6710
   -4.3903    2.5188    0.2433
   -4.9186    1.1671   -0.1738
   -5.3258    0.9923   -1.3211
   -4.9435    0.1648    0.7002
   -5.4578   -1.1510    0.2942
   -4.4206   -1.8590   -0.5443
   -3.9091   -2.8614   -0.1426
   -4.0710   -1.3591   -1.7486
   -3.0845   -2.0641   -2.5067
   -3.5440   -3.5023   -2.7284
   -1.7768   -2.0652   -1.7516
   -1.2442   -3.1304   -1.4441
   -1.2005   -0.9137   -1.4189
    0.0249   -0.9131   -0.7115
    0.6852   -2.1286   -0.4964
    1.9002   -2.1878    0.1967
    2.4148   -0.9709    0.6595
    1.7495    0.2400    0.4341
    0.5334    0.3131   -0.2556
    2.4220    1.2877    1.0593
    3.6861    0.6362    1.2077
    3.5796   -0.7822    1.3558
    4.4603    1.1668    2.4639
    5.2553    2.4415    2.1258
    6.3913    2.1243    1.1356
    5.9978    0.9688    0.1967
    4.4818    0.9481   -0.0733
   -2.3412    2.0179   -0.1663
   -2.5549    3.3554    0.9840
   -2.8608    1.6825    1.4997
   -4.4607    3.2092   -0.5946
   -4.9797    2.8966    1.0760
   -4.6093    0.3072    1.6426
   -5.6748   -1.7452    1.1794
   -6.3675   -1.0216   -0.2883
   -2.9468   -1.5744   -3.4683
   -3.6934   -3.9871   -1.7660
   -4.4794   -3.5018   -3.2840
   -2.7863   -4.0414   -3.2931
   -1.6378   -0.0391   -1.6714
    0.2517   -3.0432   -0.8733
    2.4110   -3.1247    0.3631
    0.0382    1.2588   -0.4193
    3.7629    1.3735    3.2729
    5.1398    0.3897    2.8076
    5.6800    2.8573    3.0370
    4.5921    3.1884    1.6944
    6.6109    3.0088    0.5413
    7.2931    1.8580    1.6830
    6.2903    0.0241    0.6501
    6.5335    1.0669   -0.7453
    4.1679    1.9174   -0.4548
    4.2590    0.2031   -0.8342
@<BUDE>CONF  42
   -2.9571    2.6014    0.6301
   -4.4157    2.7363    0.2024
   -4.9440    1.3846   -0.2147
   -5.3512    1.2098   -1.3620
   -4.9689    0.3823    0.6593
   -5.4832   -0.9335    0.2533
   -4.4460   -1.6415   -0.5852
   -3.9345   -2.6439   -0.1835
   -4.0964   -1.1416   -1.7895
   -3.1099   -1.8466   -2.5476
   -3.5694   -3.2848   -2.7693
   -1.8022   -1.8477   -1.7925
   -1.2696   -2.9129   -1.4850
   -1.2259   -0.6962   -1.4598
   -0.0005   -0.6956   -0.7524
    0.6598   -1.9111   -0.5373
    1.8748   -1.9703    0.1558
    2.3894   -0.7534    0.6186
    1.7241    0.4575    0.3932
    0.5080    0.5306   -0.2965
    2.3966    1.5052    1.0184
    3.6607    0.8537    1.1668
    3.5542   -0.5647    1.3149
    4.3835    1.3807    2.3929
    5.7409    0.6948    2.6342
    6.3937    0.3006    1.2963
    5.9668    1.2607    0.1704
    4.4564    1.1656   -0.1142
   -2.3666    2.2354   -0.2072
   -2.5803    3.5729    0.9431
   -2.8862    1.9000    1.4588
   -4.4861    3.4267   -0.6355
   -5.0051    3.1141    1.0351
   -4.6347    0.5247    1.6017
   -5.7002   -1.5277    1.1385
   -6.3929   -0.8041   -0.3292
   -2.9722   -1.3569   -3.5092
   -3.7188   -3.7696   -1.8069
   -4.5048   -3.2843   -3.3249
   -2.8117   -3.8239   -3.3340
   -1.6632    0.1784   -1.7123
    0.2263   -2.8257   -0.9142
    2.3856   -2.9072    0.3222
    0.0128    1.4763   -0.4602
    4.5289    2.4534    2.2849
    3.7337    1.2229    3.2511
    5.5946   -0.1981    3.2383
    6.4023    1.3640    3.1807
    7.4765    0.3297    1.3995
    6.1109   -0.7168    1.0344
    6.5150    1.0144   -0.7366
    6.2211    2.2819    0.4471
    4.1045    2.1093   -0.5255
    4.2752    0.3911   -0.8565
@<BUDE>CONF  43
   -3.3807   -5.7742   -3.0898
   -4.0707   -4.5960   -3.7713
   -3.1040   -3.4408   -3.8781
   -2.7940   -2.9973   -4.9826
   -2.5876   -2.9026   -2.7769
   -1.6466   -1.7781   -2.8808
   -2.4094   -0.5113   -3.1868
   -2.2450    0.0489   -4.2294
   -3.2775   -0.0114   -2.2819
   -3.4409   -0.7164   -1.0486
   -4.5125   -0.0292   -0.2070
   -2.1332   -0.7175   -0.2935
   -1.6006   -1.7827    0.0140
   -1.5569    0.4340    0.0392
   -0.3315    0.4346    0.7466
    0.3288   -0.7809    0.9617
    1.5438   -0.8401    1.6548
    2.0584    0.3768    2.1176
    1.3931    1.5877    1.8922
    0.1770    1.6608    1.2025
    2.0656    2.6354    2.5174
    3.3297    1.9839    2.6658
    3.2232    0.5655    2.8139
    4.0854    2.6096    3.9464
    4.3248    4.1186    3.7542
    5.1193    4.3802    2.4612
    4.3831    3.8068    1.2361
    4.1254    2.2958    1.3848
   -3.0692   -5.4818   -2.0892
   -4.0730   -6.6109   -3.0248
   -2.5087   -6.0682   -3.6704
   -4.9347   -4.2920   -3.1842
   -4.3938   -4.8909   -4.7675
   -2.8415   -3.2660   -1.8694
   -1.1143   -1.6616   -1.9392
   -0.9338   -1.9733   -3.6792
   -3.7417   -1.7417   -1.2531
   -4.2164    0.9997   -0.0136
   -5.4578   -0.0402   -0.7453
   -4.6258   -0.5582    0.7370
   -1.9942    1.3086   -0.2133
   -0.1047   -1.6955    0.5848
    2.0546   -1.7770    1.8212
   -0.3182    2.6065    1.0388
    3.4996    2.4432    4.8479
    5.0377    2.0994    4.0757
    4.8828    4.5090    4.6027
    3.3722    4.6423    3.7104
    5.2524    5.4519    2.3288
    6.1061    3.9285    2.5377
    4.9839    3.9782    0.3453
    3.4359    4.3259    1.1048
    3.5628    1.9374    0.5255
    5.0755    1.7660    1.4049
@<BUDE>CONF  44
   -6.5480   -3.2940   -4.6556
   -6.7419   -3.5446   -3.1629
   -5.3994   -3.5261   -2.4718
   -4.3745   -3.3285   -3.1224
   -5.3253   -3.7236   -1.1586
   -4.0185   -3.7057   -0.4858
   -3.5507   -2.2779   -0.3349
   -3.4343   -1.7983    0.7533
   -3.2637   -1.5428   -1.4302
   -2.8243   -0.1957   -1.2377
   -2.6267    0.4747   -2.5942
   -1.5166   -0.1968   -0.4826
   -0.9840   -1.2620   -0.1751
   -0.9403    0.9547   -0.1499
    0.2851    0.9553    0.5575
    0.8735   -0.2687    0.8972
    2.0849   -0.3283    1.5964
    2.6715    0.8971    1.9346
    2.0778    2.1157    1.5850
    0.8661    2.1896    0.8878
    2.8126    3.1803    2.1024
    4.0367    2.4741    2.3202
    3.8474    1.0869    2.6116
    4.8726    3.1340    3.5386
    6.2731    2.5032    3.6482
    7.0357    2.6434    2.3177
    6.2514    1.9952    1.1616
    4.8455    2.6067    1.0165
   -5.9241   -4.0798   -5.0766
   -7.5163   -3.2942   -5.1515
   -6.0653   -2.3298   -4.8012
   -7.2117   -4.5148   -3.0155
   -7.3759   -2.7664   -2.7432
   -6.1663   -3.8859   -0.6233
   -4.1097   -4.1626    0.4973
   -3.2965   -4.2624   -1.0795
   -3.5712    0.3522   -0.6671
   -1.8887   -0.0812   -3.1687
   -3.5719    0.4875   -3.1328
   -2.2788    1.4950   -2.4466
   -1.3776    1.8293   -0.4024
    0.3859   -1.1898    0.6141
    2.5403   -1.2717    1.8589
    0.4269    3.1412    0.6272
    4.9648    4.2081    3.3919
    4.3241    2.9757    4.4647
    6.1780    1.4484    3.8972
    6.8356    2.9858    4.4447
    7.1896    3.6979    2.0982
    8.0136    2.1743    2.4027
    6.1564    0.9276    1.3483
    6.8015    2.1237    0.2317
    4.9328    3.6610    0.7627
    4.3167    2.1118    0.2046
@<BUDE>CONF  45
   -3.5171   -3.9311   -6.0020
   -2.7908   -3.1425   -4.9161
   -3.1714   -3.6870   -3.5601
   -3.9587   -4.6280   -3.4731
   -2.6550   -3.1488   -2.4589
   -1.7140   -2.0243   -2.5628
   -2.4768   -0.7575   -2.8688
   -2.3124   -0.1973   -3.9114
   -3.3449   -0.2576   -1.9639
   -3.5083   -0.9626   -0.7306
   -4.5799   -0.2754    0.1110
   -2.2006   -0.9637    0.0245
   -1.6680   -2.0289    0.3320
   -1.6243    0.1878    0.3572
   -0.3989    0.1884    1.0646
    0.2614   -1.0271    1.2797
    1.4764   -1.0863    1.9728
    1.9910    0.1306    2.4356
    1.3257    1.3415    2.2102
    0.1096    1.4146    1.5205
    1.9982    2.3892    2.8354
    3.2623    1.7377    2.9838
    3.1558    0.3193    3.1319
    4.0180    2.3634    4.2644
    4.2574    3.8724    4.0722
    5.0519    4.1340    2.7792
    4.3157    3.5606    1.5541
    4.0580    2.0496    1.7028
   -4.5918   -3.8252   -5.8688
   -3.2327   -3.5474   -6.9795
   -3.2440   -4.9818   -5.9305
   -3.0741   -2.0938   -4.9777
   -1.7159   -3.2374   -5.0556
   -2.9089   -3.5122   -1.5514
   -1.1817   -1.9078   -1.6212
   -1.0012   -2.2195   -3.3612
   -3.8091   -1.9879   -0.9351
   -4.2838    0.7535    0.3044
   -5.5252   -0.2864   -0.4273
   -4.6932   -0.8044    1.0550
   -2.0616    1.0624    0.1047
   -0.1721   -1.9417    0.9028
    1.9872   -2.0232    2.1392
   -0.3856    2.3603    1.3568
    3.4322    2.1970    5.1659
    4.9703    1.8532    4.3937
    4.8154    4.2628    4.9207
    3.3048    4.3961    4.0284
    5.1850    5.2057    2.6468
    6.0387    3.6823    2.8557
    4.9165    3.7320    0.6633
    3.3685    4.0797    1.4228
    3.4954    1.6912    0.8435
    5.0081    1.5198    1.7229
@<BUDE>CONF  46
   -1.5224   -4.7936    0.9826
   -2.7905   -4.2319    0.3460
   -2.8416   -4.6318   -1.1092
   -1.9370   -5.3099   -1.5937
   -3.8655   -4.2505   -1.8676
   -4.9466   -3.4402   -1.2885
   -4.4788   -2.0124   -1.1376
   -4.3624   -1.5328   -0.0494
   -4.1918   -1.2773   -2.2329
   -3.7524    0.0698   -2.0404
   -3.5548    0.7402   -3.3969
   -2.4447    0.0687   -1.2853
   -1.9121   -0.9965   -0.9778
   -1.8684    1.2202   -0.9526
   -0.6430    1.2208   -0.2452
   -0.0546   -0.0032    0.0945
    1.1568   -0.0628    0.7937
    1.7434    1.1626    1.1319
    1.1497    2.3812    0.7823
   -0.0620    2.4551    0.0851
    1.8845    3.4458    1.2997
    3.1086    2.7396    1.5175
    2.9193    1.3524    1.8089
    3.9445    3.3995    2.7359
    5.3450    2.7687    2.8455
    6.1076    2.9089    1.5150
    5.3233    2.2607    0.3589
    3.9174    2.8722    0.2138
   -0.6510   -4.3859    0.4744
   -1.4921   -4.5166    2.0343
   -1.5215   -5.8778    0.8922
   -2.7857   -3.1467    0.4234
   -3.6624   -4.6292    0.8614
   -3.9008   -4.5174   -2.8411
   -5.8140   -3.4694   -1.9446
   -5.2160   -3.8379   -0.3124
   -4.4993    0.6177   -1.4698
   -2.8168    0.1843   -3.9714
   -4.5000    0.7530   -3.9355
   -3.2069    1.7605   -3.2493
   -2.3057    2.0948   -1.2051
   -0.5422   -0.9243   -0.1886
    1.6122   -1.0062    1.0562
   -0.5012    3.4067   -0.1755
    4.0367    4.4736    2.5892
    3.3960    3.2412    3.6620
    5.2499    1.7139    3.0945
    5.9075    3.2513    3.6420
    6.2615    3.9634    1.2955
    7.0855    2.4398    1.6000
    5.2283    1.1931    0.5456
    5.8734    2.3892   -0.5710
    4.0047    3.9265   -0.0400
    3.3886    2.3773   -0.5981
@<BUDE>CONF  47
   -2.1828   -3.9988   -4.5085
   -3.6191   -4.3028   -4.9250
   -4.5727   -3.5667   -4.0146
   -5.3523   -2.7372   -4.4805
   -4.5698   -3.8156   -2.7081
   -5.4982   -3.0990   -1.8219
   -4.9916   -1.6950   -1.5931
   -5.6170   -0.7601   -1.9967
   -3.8314   -1.4958   -0.9323
   -3.3920   -0.1487   -0.7398
   -3.1944    0.5217   -2.0963
   -2.0843   -0.1498    0.0153
   -1.5517   -1.2150    0.3228
   -1.5080    1.0017    0.3480
   -0.2826    1.0023    1.0554
    0.3058   -0.2217    1.3951
    1.5172   -0.2813    2.0943
    2.1038    0.9441    2.4325
    1.5101    2.1627    2.0829
    0.2984    2.2366    1.3857
    2.2449    3.2273    2.6003
    3.4690    2.5211    2.8181
    3.2797    1.1339    3.1095
    4.3049    3.1810    4.0365
    5.7054    2.5502    4.1461
    6.4680    2.6904    2.8156
    5.6837    2.0422    1.6595
    4.2778    2.6537    1.5144
   -2.0237   -4.3346   -3.4858
   -1.4956   -4.5187   -5.1726
   -2.0071   -2.9269   -4.5704
   -3.8002   -5.3730   -4.8499
   -3.7759   -3.9789   -5.9517
   -3.9302   -4.4966   -2.3244
   -6.4825   -3.0580   -2.2835
   -5.5654   -3.6194   -0.8688
   -4.1389    0.3992   -0.1692
   -2.4564   -0.0342   -2.6708
   -4.1396    0.5345   -2.6349
   -2.8465    1.5420   -1.9487
   -1.9453    1.8763    0.0955
   -0.1818   -1.1428    1.1120
    1.9726   -1.2247    2.3568
   -0.1408    3.1882    1.1251
    4.3971    4.2551    3.8898
    3.7564    3.0227    4.9626
    5.6103    1.4954    4.3951
    6.2679    3.0328    4.9426
    6.6219    3.7449    2.5961
    7.4459    2.2213    2.9006
    5.5887    0.9746    1.8462
    6.2338    2.1707    0.7296
    4.3651    3.7080    1.2606
    3.7490    2.1588    0.7025
@<BUDE>CONF  48
   -3.5349   -5.6160   -3.1102
   -4.2249   -4.4378   -3.7917
   -3.2582   -3.2826   -3.8985
   -2.9482   -2.8391   -5.0030
   -2.7418   -2.7444   -2.7973
   -1.8008   -1.6199   -2.9012
   -2.5636   -0.3531   -3.2072
   -2.3992    0.2071   -4.2498
   -3.4317    0.1468   -2.3023
   -3.5951   -0.5582   -1.0690
   -4.6667    0.1290   -0.2274
   -2.2874   -0.5593   -0.3139
   -1.7548   -1.6245   -0.0064
   -1.7111    0.5922    0.0188
   -0.4857    0.5928    0.7262
    0.1746   -0.6227    0.9413
    1.3896   -0.6819    1.6344
    1.9042    0.5350    2.0972
    1.2389    1.7459    1.8718
    0.0228    1.8190    1.1821
    1.9114    2.7936    2.4970
    3.1755    2.1421    2.6454
    3.0690    0.7237    2.7935
    3.9497    2.6727    3.9016
    4.7447    3.9474    3.5635
    5.8807    3.6302    2.5733
    5.4872    2.4747    1.6344
    3.9712    2.4540    1.3644
   -3.2234   -5.3236   -2.1096
   -4.2272   -6.4527   -3.0452
   -2.6629   -5.9100   -3.6908
   -5.0889   -4.1338   -3.2046
   -4.5480   -4.7327   -4.7879
   -2.9957   -3.1078   -1.8898
   -1.2685   -1.5034   -1.9596
   -1.0880   -1.8151   -3.6996
   -3.8959   -1.5835   -1.2735
   -4.3706    1.1579   -0.0340
   -5.6120    0.1180   -0.7657
   -4.7800   -0.4000    0.7166
   -2.1484    1.4668   -0.2337
   -0.2589   -1.5373    0.5644
    1.9004   -1.6188    1.8008
   -0.4724    2.7647    1.0184
    3.2523    2.8794    4.7106
    4.6292    1.8956    4.2453
    5.1694    4.3632    4.4747
    4.0815    4.6943    3.1321
    6.1003    4.5147    1.9790
    6.7825    3.3639    3.1207
    5.7797    1.5300    2.0878
    6.0229    2.5728    0.6924
    3.6573    3.4233    0.9829
    3.7484    1.7090    0.6035
@<BUDE>CONF  49
   -3.5187   -5.6398   -3.1083
   -4.2087   -4.4616   -3.7898
   -3.2420   -3.3064   -3.8966
   -2.9320   -2.8629   -5.0011
   -2.7256   -2.7682   -2.7954
   -1.7846   -1.6437   -2.8993
   -2.5474   -0.3769   -3.2053
   -2.3830    0.1833   -4.2479
   -3.4155    0.1230   -2.3004
   -3.5789   -0.5820   -1.0671
   -4.6505    0.1052   -0.2255
   -2.2712   -0.5831   -0.3120
   -1.7386   -1.6483   -0.0045
   -1.6949    0.5684    0.0207
   -0.4695    0.5690    0.7281
    0.1908   -0.6465    0.9432
    1.4058   -0.7057    1.6363
    1.9204    0.5112    2.0991
    1.2551    1.7221    1.8737
    0.0390    1.7952    1.1840
    1.9276    2.7698    2.4989
    3.1917    2.1183    2.6473
    3.0852    0.6999    2.7954
    3.8868    2.7597    3.8873
    5.4169    2.7725    3.7137
    5.8241    3.7211    2.5710
    4.7368    3.7706    1.4815
    3.9874    2.4302    1.3663
   -3.2072   -5.3474   -2.1077
   -4.2110   -6.4765   -3.0433
   -2.6467   -5.9338   -3.6889
   -5.0727   -4.1576   -3.2027
   -4.5318   -4.7565   -4.7860
   -2.9795   -3.1316   -1.8879
   -1.2523   -1.5272   -1.9577
   -1.0718   -1.8389   -3.6977
   -3.8797   -1.6073   -1.2716
   -4.3544    1.1341   -0.0321
   -5.5958    0.0942   -0.7638
   -4.7638   -0.4238    0.7185
   -2.1322    1.4430   -0.2318
   -0.2427   -1.5611    0.5663
    1.9166   -1.6426    1.8027
   -0.4562    2.7409    1.0203
    3.5262    3.7753    4.0358
    3.6217    2.1852    4.7724
    5.7652    1.7673    3.4862
    5.8923    3.0900    4.6395
    5.9773    4.7221    2.9688
    6.7633    3.3887    2.1337
    5.1999    4.0015    0.5244
    4.0287    4.5645    1.7098
    3.2982    2.4709    0.5256
    4.7004    1.6314    1.1736
@<BUDE>CONF  50
   -3.6713   -3.7729   -6.0225
   -2.9450   -2.9843   -4.9366
   -3.3256   -3.5288   -3.5806
   -4.1129   -4.4698   -3.4936
   -2.8092   -2.9906   -2.4794
   -1.8682   -1.8661   -2.5833
   -2.6310   -0.5993   -2.8893
   -2.4666   -0.0391   -3.9319
   -3.4991   -0.0994   -1.9844
   -3.6625   -0.8044   -0.7511
   -4.7341   -0.1172    0.0905
   -2.3548   -0.8055    0.0040
   -1.8222   -1.8707    0.3115
   -1.7785    0.3460    0.3367
   -0.5531    0.3466    1.0441
    0.1072   -0.8689    1.2592
    1.3222   -0.9281    1.9523
    1.8368    0.2888    2.4151
    1.1715    1.4997    2.1897
   -0.0446    1.5728    1.5000
    1.8440    2.5474    2.8149
    3.1081    1.8959    2.9633
    3.0016    0.4775    3.1114
    3.8823    2.4265    4.2195
    4.6773    3.7012    3.8814
    5.8133    3.3840    2.8912
    5.4198    2.2285    1.9523
    3.9038    2.2078    1.6823
   -4.7460   -3.6670   -5.8893
   -3.3869   -3.3892   -7.0000
   -3.3982   -4.8236   -5.9510
   -3.2283   -1.9356   -4.9982
   -1.8701   -3.0792   -5.0761
   -3.0631   -3.3540   -1.5719
   -1.3359   -1.7496   -1.6417
   -1.1554   -2.0613   -3.3817
   -3.9633   -1.8297   -0.9556
   -4.4380    0.9117    0.2839
   -5.6794   -0.1282   -0.4478
   -4.8474   -0.6462    1.0345
   -2.2158    1.2206    0.0842
   -0.3263   -1.7835    0.8823
    1.8330   -1.8650    2.1187
   -0.5398    2.5185    1.3363
    3.1849    2.6332    5.0285
    4.5618    1.6494    4.5632
    5.1020    4.1170    4.7926
    4.0141    4.4481    3.4500
    6.0329    4.2685    2.2969
    6.7151    3.1177    3.4386
    5.7123    1.2838    2.4057
    5.9555    2.3266    1.0103
    3.5899    3.1771    1.3008
    3.6810    1.4628    0.9214
