@<TRIPOS>MOLECULE
ZINC61303593
   47    48     0     0     0
SMALL
USER_CHARGES

@<TRIPOS>ATOM
      1 C1         -1.3162    7.8071   -0.0315 C.3       1 <0>         0.0220
      2 O1         -1.2969    6.3783   -0.0316 O.3       1 <0>        -0.3006
      3 C2         -2.5000    5.7445   -0.0141 C.ar      1 <0>         0.1008
      4 C3         -3.6688    6.4813   -0.0030 C.ar      1 <0>        -0.1273
      5 C4         -4.9034    5.8268    0.0146 C.ar      1 <0>        -0.0284
      6 C5         -4.9501    4.4303    0.0208 C.ar      1 <0>        -0.0603
      7 C6         -3.7803    3.7017    0.0097 C.ar      1 <0>        -0.1775
      8 C7         -2.5541    4.3518   -0.0131 C.ar      1 <0>         0.1359
      9 O2         -1.4041    3.6290   -0.0293 O.3       1 <0>        -0.2949
     10 C8         -1.5322    2.2058   -0.0273 C.3       1 <0>         0.0554
     11 C9         -0.1414    1.5684   -0.0468 C.3       1 <0>        -0.1108
     12 C10        -0.2787    0.0446   -0.0447 C.3       1 <0>        -0.1085
     13 C11         1.0912   -0.5832   -0.0639 C.2       1 <0>         0.4668
     14 O3          2.0762    0.1164   -0.0780 O.2       1 <0>        -0.4984
     15 O4          1.2171   -1.9196   -0.0655 O.3       1 <0>        -0.3293
     16 C12         2.5455   -2.4460   -0.0842 C.3       1 <0>         0.0498
     17 C13         2.4890   -3.9520   -0.0832 C.2       1 <0>         0.5168
     18 O5          1.4168   -4.5186   -0.0680 O.2       1 <0>        -0.4913
     19 N1          3.6300   -4.6691   -0.0993 N.am      1 <0>        -0.6701
     20 C14         3.5811   -6.0644   -0.0006 C.ar      1 <0>         0.1579
     21 C15         4.5744   -6.7483    0.6879 C.ar      1 <0>        -0.1362
     22 C16         4.5234   -8.1251    0.7840 C.ar      1 <0>        -0.0710
     23 C17         3.4838   -8.8229    0.1952 C.ar      1 <0>        -0.1038
     24 C18         2.4929   -8.1440   -0.4914 C.ar      1 <0>        -0.0707
     25 C19         2.5361   -6.7669   -0.5862 C.ar      1 <0>        -0.1148
     26 Br1         3.4177  -10.7081    0.3285 Br        1 <0>        -0.0469
     27 C20        -6.1178    6.5855    0.0266 C.1       1 <0>         0.2541
     28 N2         -7.0812    7.1874    0.0362 N.1       1 <0>        -0.4124
     29 H1         -0.2936    8.1843   -0.0464 H         1 <0>         0.1051
     30 H2         -1.8477    8.1634   -0.9139 H         1 <0>         0.0578
     31 H3         -1.8219    8.1636    0.8658 H         1 <0>         0.0579
     32 H4         -3.6283    7.5605   -0.0075 H         1 <0>         0.1456
     33 H5         -5.9028    3.9219    0.0348 H         1 <0>         0.1399
     34 H6         -3.8177    2.6223    0.0145 H         1 <0>         0.1478
     35 H7         -2.0639    1.8901    0.8704 H         1 <0>         0.0709
     36 H8         -2.0891    1.8898   -0.9094 H         1 <0>         0.0709
     37 H9          0.3903    1.8841   -0.9445 H         1 <0>         0.0878
     38 H10         0.4154    1.8843    0.8353 H         1 <0>         0.0877
     39 H11        -0.8104   -0.2711    0.8530 H         1 <0>         0.1149
     40 H12        -0.8355   -0.2713   -0.9268 H         1 <0>         0.1150
     41 H13         3.0599   -2.1023   -0.9816 H         1 <0>         0.1060
     42 H14         3.0851   -2.1021    0.7982 H         1 <0>         0.1063
     43 H15         4.4852   -4.2182   -0.1791 H         1 <0>         0.4168
     44 H16         5.3862   -6.2041    1.1474 H         1 <0>         0.1372
     45 H17         5.2958   -8.6575    1.3191 H         1 <0>         0.1390
     46 H18         1.6827   -8.6912   -0.9504 H         1 <0>         0.1383
     47 H19         1.7601   -6.2371   -1.1187 H         1 <0>         0.1486
@<TRIPOS>BOND
     1    1    2 1
     2    1   29 1
     3    1   30 1
     4    1   31 1
     5    2    3 1
     6    3    8 ar
     7    3    4 ar
     8    4    5 ar
     9    4   32 1
    10    5    6 ar
    11    5   27 1
    12    6    7 ar
    13    6   33 1
    14    7    8 ar
    15    7   34 1
    16    8    9 1
    17    9   10 1
    18   10   11 1
    19   10   35 1
    20   10   36 1
    21   11   12 1
    22   11   37 1
    23   11   38 1
    24   12   13 1
    25   12   39 1
    26   12   40 1
    27   13   14 2
    28   13   15 1
    29   15   16 1
    30   16   17 1
    31   16   41 1
    32   16   42 1
    33   17   18 2
    34   17   19 am
    35   19   20 1
    36   19   43 1
    37   20   25 ar
    38   20   21 ar
    39   21   22 ar
    40   21   44 1
    41   22   23 ar
    42   22   45 1
    43   23   24 ar
    44   23   26 1
    45   24   25 ar
    46   24   46 1
    47   25   47 1
    48   27   28 3
@<BUDE>CONF  1
   -0.5321   -4.3968    0.3201
   -1.4526   -3.3196    0.1284
   -2.7842   -3.5680    0.3336
   -3.4240   -4.7447   -0.0733
   -4.7897   -4.9381    0.1665
   -5.5236   -3.9476    0.8187
   -4.8873   -2.7694    1.2272
   -3.5218   -2.5743    0.9882
   -2.8414   -1.4456    1.3623
   -3.4721   -0.1802    1.1479
   -2.5485    0.9367    1.6319
   -1.2420    0.8947    0.8407
   -0.3292    1.9985    1.3190
   -0.6849    2.7328    2.1922
    0.8894    2.1559    0.7599
    1.7185    3.2149    1.2457
    3.0268    3.2149    0.4917
    4.0920    3.2149    1.1067
    3.0273    3.2149   -0.8383
    4.2524    3.2149   -1.5463
    5.4647    3.2131   -0.8462
    6.6766    3.2184   -1.5473
    6.6763    3.2177   -2.9458
    5.4639    3.2173   -3.6457
    4.2511    3.2149   -2.9462
    8.3214    3.2247   -3.8963
   -5.4421   -6.1610   -0.2594
   -5.9646   -7.1391   -0.5999
   -0.7691   -5.2029   -0.3712
    0.4806   -4.0450    0.1345
   -0.6085   -4.7607    1.3426
   -2.9108   -5.5473   -0.5819
   -6.5772   -4.0942    1.0050
   -5.5081   -2.0404    1.7268
   -3.6729   -0.0496    0.0866
   -4.4076   -0.1420    1.7020
   -3.0324    1.8993    1.4808
   -2.3356    0.7992    2.6899
   -0.7567   -0.0672    0.9916
   -1.4534    1.0329   -0.2175
    1.9118    3.0677    2.3061
    1.2150    4.1678    1.0970
    2.1526    3.2149   -1.3433
    5.4606    3.2057    0.2338
    7.6131    3.2164   -1.0096
    5.4664    3.2182   -4.7257
    3.3134    3.2111   -3.4819
@<BUDE>CONF  2
   -0.5321    4.3964    0.3201
   -1.4526    3.3192    0.1284
   -2.7842    3.5676    0.3336
   -3.4240    4.7443   -0.0733
   -4.7897    4.9377    0.1665
   -5.5236    3.9472    0.8187
   -4.8873    2.7690    1.2272
   -3.5218    2.5739    0.9882
   -2.8414    1.4452    1.3623
   -3.4721    0.1798    1.1479
   -2.5485   -0.9371    1.6319
   -1.2420   -0.8951    0.8407
   -0.3292   -1.9989    1.3190
   -0.6849   -2.7332    2.1922
    0.8894   -2.1563    0.7599
    1.7185   -3.2153    1.2457
    3.0268   -3.2153    0.4917
    4.0920   -3.2153    1.1067
    3.0273   -3.2153   -0.8383
    4.2524   -3.2153   -1.5463
    5.4647   -3.2171   -0.8462
    6.6766   -3.2118   -1.5473
    6.6763   -3.2125   -2.9458
    5.4639   -3.2129   -3.6457
    4.2511   -3.2153   -2.9462
    8.3214   -3.2055   -3.8963
   -5.4421    6.1606   -0.2594
   -5.9646    7.1387   -0.5999
   -0.5895    4.7428    1.3498
    0.4779    4.0516    0.1086
   -0.7853    5.2131   -0.3527
   -2.9108    5.5469   -0.5819
   -6.5772    4.0938    1.0050
   -5.5081    2.0400    1.7268
   -4.4076    0.1416    1.7020
   -3.6729    0.0492    0.0866
   -2.3356   -0.7996    2.6899
   -3.0324   -1.8997    1.4808
   -1.4534   -1.0333   -0.2175
   -0.7567    0.0668    0.9916
    1.2150   -4.1682    1.0970
    1.9118   -3.0681    2.3061
    2.1526   -3.2153   -1.3433
    5.4606   -3.2245    0.2338
    7.6131   -3.2138   -1.0096
    5.4664   -3.2120   -4.7257
    3.3134   -3.2191   -3.4819
@<BUDE>CONF  3
    0.7911   -4.1858    1.8775
    0.3516   -2.9484    1.3113
    0.7444   -2.6513    0.0329
    2.0289   -2.9067   -0.4616
    2.3682   -2.5789   -1.7797
    1.4163   -1.9905   -2.6121
    0.1307   -1.7334   -2.1212
   -0.2103   -2.0606   -0.8035
   -1.4491   -1.8351   -0.2637
   -2.0866   -0.5866   -0.5460
   -3.4475   -0.5423    0.1474
   -3.2528   -0.6681    1.6577
   -2.4134    0.4850    2.1539
   -1.3634    0.2757    2.6848
   -2.8494    1.7530    1.9976
   -2.0203    2.8120    2.4834
   -0.7120    2.8120    1.7294
    0.3532    2.8120    2.3444
   -0.7115    2.8120    0.3994
    0.5136    2.8120   -0.3086
    1.7259    2.8102    0.3915
    2.9378    2.8155   -0.3096
    2.9375    2.8148   -1.7081
    1.7251    2.8144   -2.4080
    0.5123    2.8120   -1.7085
    4.5826    2.8218   -2.6586
    3.7018   -2.8481   -2.2813
    4.7685   -3.0631   -2.6832
    1.8783   -4.2005    1.9156
    0.3908   -4.2856    2.8842
    0.4378   -5.0109    1.2626
    2.8085   -3.3597    0.1329
    1.6754   -1.7366   -3.6293
   -0.5617   -1.2767   -2.8129
   -1.4668    0.2289   -0.1794
   -2.2243   -0.4837   -1.6203
   -3.9390    0.4021   -0.0768
   -4.0634   -1.3657   -0.2080
   -4.2219   -0.6493    2.1518
   -2.7488   -1.6057    1.8822
   -1.8270    2.6648    3.5438
   -2.5238    3.7649    2.3347
   -1.5862    2.8120   -0.1056
    1.7218    2.8028    1.4715
    3.8743    2.8135    0.2281
    1.7276    2.8153   -3.4880
   -0.4254    2.8082   -2.2442
@<BUDE>CONF  4
    0.7911    4.1855    1.8775
    0.3516    2.9481    1.3113
    0.7444    2.6510    0.0329
    2.0289    2.9064   -0.4616
    2.3682    2.5786   -1.7797
    1.4163    1.9902   -2.6121
    0.1307    1.7331   -2.1212
   -0.2103    2.0603   -0.8035
   -1.4491    1.8348   -0.2637
   -2.0866    0.5863   -0.5460
   -3.4475    0.5420    0.1474
   -3.2528    0.6678    1.6577
   -2.4134   -0.4853    2.1539
   -1.3634   -0.2760    2.6848
   -2.8494   -1.7533    1.9976
   -2.0203   -2.8123    2.4834
   -0.7120   -2.8123    1.7294
    0.3532   -2.8123    2.3444
   -0.7115   -2.8123    0.3994
    0.5136   -2.8123   -0.3086
    1.7259   -2.8141    0.3915
    2.9378   -2.8088   -0.3096
    2.9375   -2.8095   -1.7081
    1.7251   -2.8099   -2.4080
    0.5123   -2.8123   -1.7085
    4.5826   -2.8025   -2.6586
    3.7018    2.8478   -2.2813
    4.7685    3.0628   -2.6832
    0.4156    5.0117    1.2775
    0.4129    4.2731    2.8938
    1.8787    4.2112    1.8911
    2.8085    3.3594    0.1329
    1.6754    1.7363   -3.6293
   -0.5617    1.2764   -2.8129
   -2.2243    0.4834   -1.6203
   -1.4668   -0.2292   -0.1794
   -4.0634    1.3654   -0.2080
   -3.9390   -0.4024   -0.0768
   -2.7488    1.6054    1.8822
   -4.2219    0.6490    2.1518
   -2.5238   -3.7652    2.3347
   -1.8270   -2.6651    3.5438
   -1.5862   -2.8123   -0.1056
    1.7218   -2.8215    1.4715
    3.8743   -2.8108    0.2281
    1.7276   -2.8090   -3.4880
   -0.4254   -2.8161   -2.2442
@<BUDE>CONF  5
   -5.7451   -0.3288    0.4107
   -4.7955   -1.0114    1.2336
   -4.5853   -2.3450    1.0013
   -5.6109   -3.2503    0.7039
   -5.3299   -4.6028    0.4764
   -4.0128   -5.0560    0.5464
   -2.9844   -4.1538    0.8436
   -3.2636   -2.8010    1.0714
   -2.3036   -1.8691    1.3661
   -1.0809   -1.9084    0.6257
   -0.1573   -0.7914    1.1097
   -0.8312    0.5606    0.8806
    0.0816    1.6644    1.3589
   -0.2741    2.3987    2.2321
    1.3002    1.8218    0.7998
    2.1293    2.8808    1.2856
    3.4376    2.8808    0.5316
    4.5028    2.8808    1.1466
    3.4381    2.8808   -0.7984
    4.6632    2.8808   -1.5064
    5.8755    2.8790   -0.8063
    7.0874    2.8843   -1.5074
    7.0871    2.8836   -2.9059
    5.8747    2.8832   -3.6058
    4.6619    2.8808   -2.9063
    8.7322    2.8906   -3.8564
   -6.4002   -5.5316    0.1690
   -7.2559   -6.2751   -0.0769
   -6.7250   -0.7851    0.5339
   -5.7921    0.7179    0.7042
   -5.4392   -0.4005   -0.6309
   -6.6491   -2.9609    0.6355
   -3.7933   -6.0988    0.3714
   -1.9863   -4.5643    0.8838
   -0.5955   -2.8703    0.7766
   -1.2924   -1.7702   -0.4325
    0.0437   -0.9205    2.1711
    0.7783   -0.8280    0.5557
   -1.0320    0.6913   -0.1806
   -1.7667    0.5988    1.4347
    2.3226    2.7336    2.3460
    1.6258    3.8337    1.1369
    2.5634    2.8808   -1.3034
    5.8714    2.8716    0.2737
    8.0239    2.8823   -0.9697
    5.8772    2.8841   -4.6858
    3.7242    2.8770   -3.4420
@<BUDE>CONF  6
   -5.0504    0.2644    3.2997
   -3.9901    0.0337    2.3683
   -4.2658   -0.7121    1.2527
   -5.0694   -1.8582    1.2666
   -5.3132   -2.5775    0.0905
   -4.7494   -2.1485   -1.1109
   -3.9451   -1.0028   -1.1289
   -3.7004   -0.2824    0.0462
   -2.9236    0.8450    0.0952
   -1.6976    0.8474   -0.6408
   -0.9927    2.1896   -0.4503
   -0.6807    2.3942    1.0314
    0.2321    1.2904    1.5097
   -0.1236    0.5561    2.3829
    1.4507    1.1330    0.9506
    2.2798    0.0740    1.4364
    3.5881    0.0740    0.6824
    4.6533    0.0740    1.2974
    3.5886    0.0740   -0.6476
    4.8137    0.0740   -1.3556
    6.0260    0.0722   -0.6555
    7.2379    0.0775   -1.3566
    7.2376    0.0768   -2.7551
    6.0252    0.0764   -3.4550
    4.8124    0.0740   -2.7555
    8.8827    0.0838   -3.7056
   -6.1472   -3.7633    0.1166
   -6.8143   -4.7120    0.1369
   -5.4042   -0.6881    3.6886
   -4.6845    0.8785    4.1199
   -5.8677    0.7781    2.7978
   -5.5334   -2.2401    2.1639
   -4.9358   -2.7015   -2.0197
   -3.5374   -0.7211   -2.0885
   -1.0554    0.0468   -0.2796
   -1.9078    0.6957   -1.6974
   -0.0658    2.1974   -1.0198
   -1.6396    2.9923   -0.7982
   -0.1900    3.3553    1.1701
   -1.6056    2.3727    1.6038
    1.7763   -0.8789    1.2877
    2.4731    0.2212    2.4968
    2.7139    0.0740   -1.1526
    6.0219    0.0648    0.4245
    8.1744    0.0755   -0.8189
    6.0277    0.0773   -4.5350
    3.8747    0.0702   -3.2912
@<BUDE>CONF  7
   -5.7451    0.3284    0.4107
   -4.7955    1.0110    1.2336
   -4.5853    2.3446    1.0013
   -5.6109    3.2499    0.7039
   -5.3299    4.6024    0.4764
   -4.0128    5.0556    0.5464
   -2.9844    4.1534    0.8436
   -3.2636    2.8006    1.0714
   -2.3036    1.8687    1.3661
   -1.0809    1.9080    0.6257
   -0.1573    0.7910    1.1097
   -0.8312   -0.5610    0.8806
    0.0816   -1.6648    1.3589
   -0.2741   -2.3991    2.2321
    1.3002   -1.8222    0.7998
    2.1293   -2.8812    1.2856
    3.4376   -2.8812    0.5316
    4.5028   -2.8812    1.1466
    3.4381   -2.8812   -0.7984
    4.6632   -2.8812   -1.5064
    5.8755   -2.8830   -0.8063
    7.0874   -2.8777   -1.5074
    7.0871   -2.8784   -2.9059
    5.8747   -2.8788   -3.6058
    4.6619   -2.8812   -2.9063
    8.7322   -2.8714   -3.8564
   -6.4002    5.5312    0.1690
   -7.2559    6.2747   -0.0769
   -5.4253    0.3774   -0.6280
   -5.8117   -0.7121    0.7217
   -6.7195    0.8013    0.5137
   -6.6491    2.9605    0.6355
   -3.7933    6.0984    0.3714
   -1.9863    4.5639    0.8838
   -1.2924    1.7698   -0.4325
   -0.5955    2.8699    0.7766
    0.7783    0.8276    0.5557
    0.0437    0.9201    2.1711
   -1.7667   -0.5992    1.4347
   -1.0320   -0.6917   -0.1806
    1.6258   -3.8341    1.1369
    2.3226   -2.7340    2.3460
    2.5634   -2.8812   -1.3034
    5.8714   -2.8904    0.2737
    8.0239   -2.8797   -0.9697
    5.8772   -2.8779   -4.6858
    3.7242   -2.8850   -3.4420
@<BUDE>CONF  8
   -5.0504   -0.2648    3.2996
   -3.9901   -0.0341    2.3683
   -4.2657    0.7117    1.2527
   -5.0694    1.8578    1.2666
   -5.3132    2.5771    0.0905
   -4.7494    2.1481   -1.1110
   -3.9451    1.0024   -1.1289
   -3.7004    0.2820    0.0462
   -2.9236   -0.8454    0.0952
   -1.6976   -0.8478   -0.6408
   -0.9927   -2.1900   -0.4503
   -0.6807   -2.3946    1.0314
    0.2321   -1.2908    1.5097
   -0.1236   -0.5565    2.3829
    1.4507   -1.1334    0.9506
    2.2798   -0.0744    1.4364
    3.5881   -0.0744    0.6824
    4.6533   -0.0744    1.2974
    3.5886   -0.0744   -0.6476
    4.8137   -0.0744   -1.3556
    6.0260   -0.0762   -0.6555
    7.2379   -0.0709   -1.3566
    7.2376   -0.0716   -2.7551
    6.0252   -0.0720   -3.4550
    4.8124   -0.0744   -2.7555
    8.8827   -0.0646   -3.7056
   -6.1472    3.7629    0.1166
   -6.8143    4.7116    0.1369
   -5.8567   -0.8019    2.8046
   -4.6777   -0.8564    4.1332
   -5.4220    0.6889    3.6686
   -5.5334    2.2397    2.1639
   -4.9358    2.7011   -2.0197
   -3.5374    0.7207   -2.0885
   -1.9078   -0.6961   -1.6974
   -1.0554   -0.0472   -0.2796
   -1.6396   -2.9927   -0.7982
   -0.0658   -2.1978   -1.0198
   -1.6056   -2.3731    1.6038
   -0.1900   -3.3557    1.1701
    2.4731   -0.2216    2.4968
    1.7763    0.8785    1.2877
    2.7139   -0.0744   -1.1526
    6.0219   -0.0836    0.4245
    8.1744   -0.0729   -0.8189
    6.0277   -0.0711   -4.5350
    3.8747   -0.0782   -3.2912
@<BUDE>CONF  9
   -1.5171    0.3266   -2.2132
   -2.5455    1.1753   -1.6966
   -3.5980    0.5868   -1.0465
   -4.2073   -0.5987   -1.4743
   -5.2808   -1.1499   -0.7646
   -5.7506   -0.5116    0.3831
   -5.1440    0.6741    0.8141
   -4.0704    1.2266    0.1056
   -3.4345    2.3826    0.4747
   -3.1425    2.5740    1.8615
   -2.2189    1.4571    2.3455
   -0.9124    1.4991    1.5543
    0.0004    0.3953    2.0326
   -0.3553   -0.3390    2.9058
    1.2190    0.2379    1.4735
    2.0481   -0.8211    1.9593
    3.3564   -0.8211    1.2053
    4.4216   -0.8211    1.8203
    3.3569   -0.8211   -0.1247
    4.5820   -0.8211   -0.8327
    5.7943   -0.8229   -0.1326
    7.0062   -0.8176   -0.8337
    7.0059   -0.8183   -2.2322
    5.7935   -0.8187   -2.9321
    4.5807   -0.8211   -2.2326
    8.6510   -0.8113   -3.1827
   -5.9043   -2.3784   -1.2170
   -6.4035   -3.3611   -1.5784
   -1.9442   -0.3547   -2.9461
   -0.7495    0.9350   -2.6867
   -1.0766   -0.2452   -1.3991
   -3.8895   -1.1389   -2.3539
   -6.5786   -0.9347    0.9324
   -5.5520    1.1210    1.7086
   -2.6518    3.5351    2.0001
   -4.0674    2.5525    2.4339
   -2.0060    1.5946    3.4035
   -2.7028    0.4945    2.1944
   -1.1238    1.3609    0.4961
   -0.4271    2.4610    1.7052
    1.5446   -1.7740    1.8106
    2.2414   -0.6739    3.0197
    2.4822   -0.8211   -0.6297
    5.7902   -0.8303    0.9474
    7.9427   -0.8196   -0.2960
    5.7960   -0.8178   -4.0121
    3.6430   -0.8249   -2.7683
@<BUDE>CONF  10
   -1.5171   -0.3269   -2.2132
   -2.5455   -1.1756   -1.6966
   -3.5980   -0.5871   -1.0465
   -4.2073    0.5984   -1.4743
   -5.2808    1.1496   -0.7646
   -5.7506    0.5113    0.3830
   -5.1440   -0.6744    0.8141
   -4.0704   -1.2269    0.1056
   -3.4345   -2.3829    0.4747
   -3.1425   -2.5743    1.8615
   -2.2189   -1.4574    2.3455
   -0.9124   -1.4994    1.5543
    0.0004   -0.3956    2.0326
   -0.3553    0.3387    2.9058
    1.2190   -0.2382    1.4735
    2.0481    0.8208    1.9593
    3.3564    0.8208    1.2053
    4.4216    0.8208    1.8203
    3.3569    0.8208   -0.1247
    4.5820    0.8208   -0.8327
    5.7943    0.8190   -0.1326
    7.0062    0.8243   -0.8337
    7.0059    0.8236   -2.2322
    5.7935    0.8232   -2.9321
    4.5807    0.8208   -2.2326
    8.6510    0.8306   -3.1827
   -5.9043    2.3781   -1.2170
   -6.4035    3.3608   -1.5784
   -1.0586    0.2253   -1.3955
   -0.7628   -0.9334   -2.7101
   -1.9489    0.3720   -2.9266
   -3.8895    1.1386   -2.3539
   -6.5786    0.9344    0.9324
   -5.5520   -1.1213    1.7086
   -4.0674   -2.5528    2.4339
   -2.6518   -3.5354    2.0001
   -2.7028   -0.4948    2.1944
   -2.0060   -1.5949    3.4035
   -0.4271   -2.4613    1.7052
   -1.1238   -1.3612    0.4961
    2.2414    0.6736    3.0197
    1.5446    1.7737    1.8106
    2.4822    0.8208   -0.6297
    5.7902    0.8116    0.9474
    7.9427    0.8223   -0.2960
    5.7960    0.8241   -4.0121
    3.6430    0.8170   -2.7683
@<BUDE>CONF  11
    2.0701    1.1479    1.7744
    0.7561    0.5852    1.7358
   -0.0770    0.8250    2.7965
    0.3456    0.8139    4.1311
   -0.5566    1.0672    5.1712
   -1.8934    1.3341    4.8763
   -2.3199    1.3461    3.5430
   -1.4190    1.0930    2.5017
   -1.7731    1.0902    1.1783
   -2.6433    2.1258    0.7145
   -2.9086    1.9364   -0.7783
   -3.5825    0.5844   -1.0074
   -2.6697   -0.5194   -0.5291
   -3.0254   -1.2537    0.3441
   -1.4511   -0.6768   -1.0882
   -0.6220   -1.7358   -0.6024
    0.6863   -1.7358   -1.3564
    1.7515   -1.7358   -0.7414
    0.6868   -1.7358   -2.6864
    1.9119   -1.7358   -3.3944
    3.1242   -1.7376   -2.6943
    4.3361   -1.7323   -3.3954
    4.3358   -1.7330   -4.7939
    3.1234   -1.7334   -5.4938
    1.9106   -1.7358   -4.7943
    5.9809   -1.7260   -5.7444
   -0.1077    1.0531    6.5498
    0.2508    1.0420    7.6530
    2.6063    0.7567    2.6365
    2.6040    0.8837    0.8639
    1.9981    2.2308    1.8520
    1.3660    0.6141    4.4230
   -2.5915    1.5298    5.6768
   -3.3659    1.5589    3.3786
   -3.5846    2.0800    1.2582
   -2.1756    3.0942    0.8791
   -3.5606    2.7310   -1.1351
   -1.9666    1.9680   -1.3216
   -4.5180    0.5462   -0.4533
   -3.7833    0.4537   -2.0686
   -1.1255   -2.6887   -0.7511
   -0.4287   -1.5886    0.4580
   -0.1879   -1.7358   -3.1914
    3.1201   -1.7450   -1.6143
    5.2726   -1.7343   -2.8577
    3.1259   -1.7325   -6.5738
    0.9729   -1.7396   -5.3300
@<BUDE>CONF  12
    2.0701   -1.1483    1.7744
    0.7561   -0.5856    1.7358
   -0.0770   -0.8254    2.7965
    0.3456   -0.8143    4.1311
   -0.5566   -1.0676    5.1712
   -1.8934   -1.3345    4.8763
   -2.3199   -1.3465    3.5430
   -1.4190   -1.0934    2.5017
   -1.7731   -1.0906    1.1783
   -2.6433   -2.1262    0.7145
   -2.9086   -1.9368   -0.7783
   -3.5825   -0.5848   -1.0074
   -2.6697    0.5190   -0.5291
   -3.0254    1.2533    0.3441
   -1.4511    0.6764   -1.0882
   -0.6220    1.7354   -0.6024
    0.6863    1.7354   -1.3564
    1.7515    1.7354   -0.7414
    0.6868    1.7354   -2.6864
    1.9119    1.7354   -3.3944
    3.1242    1.7336   -2.6943
    4.3361    1.7389   -3.3954
    4.3358    1.7382   -4.7939
    3.1234    1.7378   -5.4938
    1.9106    1.7354   -4.7943
    5.9809    1.7452   -5.7444
   -0.1077   -1.0535    6.5498
    0.2508   -1.0424    7.6530
    1.9982   -2.2327    1.8253
    2.6131   -0.8619    0.8762
    2.5971   -0.7776    2.6511
    1.3660   -0.6145    4.4230
   -2.5915   -1.5302    5.6768
   -3.3659   -1.5593    3.3786
   -2.1756   -3.0946    0.8791
   -3.5846   -2.0804    1.2582
   -1.9666   -1.9684   -1.3216
   -3.5606   -2.7314   -1.1351
   -3.7833   -0.4541   -2.0686
   -4.5180   -0.5466   -0.4533
   -0.4287    1.5882    0.4580
   -1.1255    2.6883   -0.7511
   -0.1879    1.7354   -3.1914
    3.1201    1.7262   -1.6143
    5.2726    1.7369   -2.8577
    3.1259    1.7387   -6.5738
    0.9729    1.7316   -5.3300
@<BUDE>CONF  13
   -5.0680   -0.4786    3.2710
   -4.0388   -0.6247    2.2891
   -4.4068   -0.9974    1.0232
   -5.3847   -1.9622    0.7535
   -5.7156   -2.2990   -0.5644
   -5.0642   -1.6667   -1.6233
   -4.0857   -0.7014   -1.3577
   -3.7536   -0.3634   -0.0404
   -2.8066    0.5714    0.2856
   -1.5806    0.5690   -0.4504
   -0.8757   -0.7732   -0.2599
   -0.5637   -0.9778    1.2218
    0.3491    0.1260    1.7001
   -0.0066    0.8603    2.5733
    1.5677    0.2834    1.1410
    2.3968    1.3424    1.6268
    3.7051    1.3424    0.8728
    4.7703    1.3424    1.4878
    3.7056    1.3424   -0.4572
    4.9307    1.3424   -1.1652
    6.1430    1.3406   -0.4651
    7.3549    1.3459   -1.1662
    7.3546    1.3452   -2.5647
    6.1422    1.3448   -3.2646
    4.9294    1.3424   -2.5651
    8.9997    1.3522   -3.5152
   -6.7301   -3.2998   -0.8320
   -7.5417   -4.1003   -1.0467
   -5.5789   -1.4298    3.4042
   -4.6258   -0.1682    4.2154
   -5.7808    0.2734    2.9392
   -5.9235   -2.4860    1.5292
   -5.3175   -1.9246   -2.6410
   -3.6172   -0.2475   -2.2184
   -1.7908    0.7207   -1.5070
   -0.9384    1.3696   -0.0892
   -1.5226   -1.5759   -0.6078
    0.0512   -0.7810   -0.8294
   -1.4886   -0.9563    1.7942
   -0.0730   -1.9389    1.3605
    2.5901    1.1952    2.6872
    1.8933    2.2953    1.4781
    2.8309    1.3424   -0.9622
    6.1389    1.3332    0.6149
    8.2914    1.3439   -0.6285
    6.1447    1.3457   -4.3446
    3.9917    1.3386   -3.1008
@<BUDE>CONF  14
   -5.0680    0.4782    3.2710
   -4.0388    0.6243    2.2891
   -4.4068    0.9970    1.0232
   -5.3847    1.9618    0.7535
   -5.7156    2.2986   -0.5644
   -5.0642    1.6663   -1.6233
   -4.0857    0.7010   -1.3577
   -3.7536    0.3630   -0.0404
   -2.8066   -0.5718    0.2856
   -1.5806   -0.5694   -0.4504
   -0.8757    0.7728   -0.2599
   -0.5637    0.9774    1.2218
    0.3491   -0.1264    1.7001
   -0.0066   -0.8607    2.5733
    1.5677   -0.2838    1.1410
    2.3968   -1.3428    1.6268
    3.7051   -1.3428    0.8728
    4.7703   -1.3428    1.4878
    3.7056   -1.3428   -0.4572
    4.9307   -1.3428   -1.1652
    6.1430   -1.3446   -0.4651
    7.3549   -1.3393   -1.1662
    7.3546   -1.3400   -2.5647
    6.1422   -1.3404   -3.2646
    4.9294   -1.3428   -2.5651
    8.9997   -1.3330   -3.5152
   -6.7301    3.2994   -0.8320
   -7.5417    4.0999   -1.0467
   -5.7663   -0.2926    2.9516
   -4.6230    0.1937    4.2223
   -5.5963    1.4224    3.3851
   -5.9235    2.4856    1.5292
   -5.3175    1.9242   -2.6410
   -3.6172    0.2471   -2.2184
   -0.9384   -1.3700   -0.0892
   -1.7908   -0.7211   -1.5070
    0.0512    0.7806   -0.8294
   -1.5226    1.5755   -0.6078
   -0.0730    1.9385    1.3605
   -1.4886    0.9559    1.7942
    1.8933   -2.2957    1.4781
    2.5901   -1.1956    2.6872
    2.8309   -1.3428   -0.9622
    6.1389   -1.3520    0.6149
    8.2914   -1.3413   -0.6285
    6.1447   -1.3395   -4.3446
    3.9917   -1.3466   -3.1008
@<BUDE>CONF  15
   -5.1633    1.5495    3.1431
   -4.1043    1.3595    2.2013
   -4.3753    0.6433    1.0653
   -5.1646   -0.5128    1.0488
   -5.4044   -1.2003   -0.1470
   -4.8511   -0.7293   -1.3375
   -4.0613    0.4265   -1.3250
   -3.8205    1.1151   -0.1302
   -3.0577    2.2504   -0.0512
   -1.8349    2.2897   -0.7917
   -0.9113    1.1727   -0.3077
   -0.5993    1.3773    1.1740
    0.3135    0.2735    1.6523
   -0.0422   -0.4608    2.5255
    1.5321    0.1161    1.0932
    2.3612   -0.9429    1.5790
    3.6695   -0.9429    0.8250
    4.7347   -0.9429    1.4400
    3.6700   -0.9429   -0.5050
    4.8951   -0.9429   -1.2130
    6.1074   -0.9447   -0.5129
    7.3193   -0.9394   -1.2140
    7.3190   -0.9401   -2.6125
    6.1066   -0.9405   -3.3124
    4.8938   -0.9429   -2.6129
    8.9641   -0.9331   -3.5630
   -6.2235   -2.3968   -0.1523
   -6.8786   -3.3540   -0.1573
   -5.5035    0.5816    3.5053
   -4.8016    2.1439    3.9795
   -5.9891    2.0673    2.6597
   -5.6200   -0.9266    1.9363
   -5.0345   -1.2578   -2.2613
   -3.6612    0.7412   -2.2775
   -2.0464    2.1515   -1.8499
   -1.3496    3.2516   -0.6408
   -1.4012    0.2111   -0.4450
    0.0144    1.1937   -0.8788
   -0.1086    2.3384    1.3127
   -1.5242    1.3558    1.7464
    1.8577   -1.8958    1.4303
    2.5545   -0.7957    2.6394
    2.7953   -0.9429   -1.0100
    6.1033   -0.9521    0.5671
    8.2558   -0.9414   -0.6763
    6.1091   -0.9396   -4.3924
    3.9561   -0.9467   -3.1486
@<BUDE>CONF  16
   -5.1633   -1.5498    3.1431
   -4.1043   -1.3598    2.2012
   -4.3753   -0.6436    1.0653
   -5.1646    0.5125    1.0488
   -5.4044    1.2000   -0.1470
   -4.8511    0.7290   -1.3375
   -4.0613   -0.4267   -1.3250
   -3.8205   -1.1154   -0.1302
   -3.0577   -2.2507   -0.0512
   -1.8349   -2.2900   -0.7917
   -0.9113   -1.1730   -0.3077
   -0.5993   -1.3776    1.1740
    0.3135   -0.2738    1.6523
   -0.0422    0.4605    2.5255
    1.5321   -0.1164    1.0932
    2.3612    0.9426    1.5790
    3.6695    0.9426    0.8250
    4.7347    0.9426    1.4400
    3.6700    0.9426   -0.5050
    4.8951    0.9426   -1.2130
    6.1074    0.9408   -0.5129
    7.3193    0.9461   -1.2140
    7.3190    0.9454   -2.6125
    6.1066    0.9450   -3.3124
    4.8938    0.9426   -2.6129
    8.9641    0.9524   -3.5630
   -6.2235    2.3965   -0.1523
   -6.8786    3.3537   -0.1573
   -5.9783   -2.0910    2.6671
   -4.7945   -2.1214    3.9922
   -5.5214   -0.5811    3.4854
   -5.6200    0.9263    1.9363
   -5.0345    1.2575   -2.2613
   -3.6612   -0.7415   -2.2775
   -1.3496   -3.2519   -0.6408
   -2.0464   -2.1518   -1.8499
    0.0144   -1.1940   -0.8788
   -1.4012   -0.2114   -0.4450
   -1.5242   -1.3561    1.7464
   -0.1086   -2.3387    1.3127
    2.5545    0.7954    2.6394
    1.8577    1.8955    1.4303
    2.7953    0.9426   -1.0100
    6.1033    0.9334    0.5671
    8.2558    0.9441   -0.6763
    6.1091    0.9459   -4.3924
    3.9561    0.9388   -3.1486
@<BUDE>CONF  17
   -5.3107    1.1888    1.4835
   -4.1158    1.5315    0.7768
   -3.8382    2.8600    0.5903
   -4.8079    3.8153    0.2637
   -4.4593    5.1595    0.0861
   -3.1299    5.5539    0.2359
   -2.1572    4.6015    0.5625
   -2.5041    3.2570    0.7404
   -1.6008    2.2779    1.0602
   -0.3400    2.2821    0.3853
    0.5093    1.1154    0.8874
   -0.2073   -0.2006    0.5888
    0.6321   -1.3537    1.0850
    1.6821   -1.1444    1.6159
    0.1961   -2.6217    0.9287
    1.0252   -3.6807    1.4145
    2.3335   -3.6807    0.6605
    3.3987   -3.6807    1.2755
    2.3340   -3.6807   -0.6695
    3.5591   -3.6807   -1.3775
    4.7714   -3.6825   -0.6774
    5.9833   -3.6772   -1.3785
    5.9830   -3.6779   -2.7770
    4.7706   -3.6783   -3.4769
    3.5578   -3.6807   -2.7774
    7.6281   -3.6709   -3.7275
   -5.4722    6.1404   -0.2521
   -6.2820    6.9257   -0.5226
   -6.1734    1.5749    0.9446
   -5.3865    0.1064    1.5630
   -5.2797    1.6249    2.4799
   -5.8523    3.5725    0.1343
   -2.8582    6.5902    0.0995
   -1.1463    4.9677    0.6648
   -0.5009    2.1783   -0.6857
    0.1763    3.2185    0.5859
    1.4736    1.1249    0.3837
    0.6592    1.2106    1.9607
   -1.1715   -0.2117    1.0926
   -0.3571   -0.2974   -0.4844
    0.5217   -4.6336    1.2658
    1.2185   -3.5335    2.4749
    1.4593   -3.6807   -1.1745
    4.7673   -3.6899    0.4026
    6.9198   -3.6792   -0.8408
    4.7731   -3.6774   -4.5569
    2.6201   -3.6845   -3.3131
@<BUDE>CONF  18
   -5.3107   -1.1892    1.4835
   -4.1158   -1.5319    0.7768
   -3.8382   -2.8604    0.5903
   -4.8079   -3.8157    0.2637
   -4.4593   -5.1599    0.0861
   -3.1299   -5.5543    0.2359
   -2.1572   -4.6019    0.5625
   -2.5041   -3.2574    0.7404
   -1.6008   -2.2783    1.0602
   -0.3400   -2.2825    0.3853
    0.5093   -1.1158    0.8874
   -0.2073    0.2002    0.5888
    0.6321    1.3533    1.0850
    1.6821    1.1440    1.6159
    0.1961    2.6213    0.9287
    1.0252    3.6803    1.4145
    2.3335    3.6803    0.6605
    3.3987    3.6803    1.2755
    2.3340    3.6803   -0.6695
    3.5591    3.6803   -1.3775
    4.7714    3.6785   -0.6774
    5.9833    3.6838   -1.3785
    5.9830    3.6831   -2.7770
    4.7706    3.6827   -3.4769
    3.5578    3.6803   -2.7774
    7.6281    3.6901   -3.7275
   -5.4722   -6.1408   -0.2521
   -6.2820   -6.9261   -0.5226
   -5.2679   -1.6029    2.4889
   -5.4001   -0.1064    1.5397
   -6.1716   -1.5981    0.9587
   -5.8523   -3.5729    0.1343
   -2.8582   -6.5906    0.0995
   -1.1463   -4.9681    0.6648
    0.1763   -3.2189    0.5859
   -0.5009   -2.1787   -0.6857
    0.6592   -1.2110    1.9607
    1.4736   -1.1253    0.3837
   -0.3571    0.2970   -0.4844
   -1.1715    0.2113    1.0926
    1.2185    3.5331    2.4749
    0.5217    4.6332    1.2658
    1.4593    3.6803   -1.1745
    4.7673    3.6711    0.4026
    6.9198    3.6818   -0.8408
    4.7731    3.6836   -4.5569
    2.6201    3.6765   -3.3131
@<BUDE>CONF  19
    0.5975    4.2811    1.8916
   -0.1832    3.2124    1.3503
   -0.8035    3.4158    0.1459
   -1.4308    4.6158   -0.2091
   -2.0479    4.7606   -1.4574
   -2.0386    3.6972   -2.3599
   -1.4123    2.4955   -2.0086
   -0.7948    2.3491   -0.7608
   -0.1659    1.2008   -0.3573
   -0.8034   -0.0477   -0.6396
   -2.1643   -0.0920    0.0538
   -1.9696    0.0338    1.5641
   -1.1302   -1.1193    2.0603
   -0.0802   -0.9100    2.5912
   -1.5662   -2.3873    1.9040
   -0.7371   -3.4463    2.3898
    0.5712   -3.4463    1.6358
    1.6364   -3.4463    2.2508
    0.5717   -3.4463    0.3058
    1.7968   -3.4463   -0.4022
    3.0091   -3.4481    0.2979
    4.2210   -3.4428   -0.4032
    4.2207   -3.4435   -1.8017
    3.0083   -3.4439   -2.5016
    1.7955   -3.4463   -1.8021
    5.8658   -3.4365   -2.7522
   -2.6947    6.0082   -1.8145
   -3.2123    7.0061   -2.1008
   -0.0395    5.1478    2.0555
    1.0345    3.9673    2.8373
    1.3905    4.5399    1.1931
   -1.4715    5.4740    0.4452
   -2.5139    3.8062   -3.3236
   -1.4385    1.7097   -2.7489
   -0.9411   -0.1506   -1.7139
   -0.1836   -0.8632   -0.2730
   -2.7802    0.7314   -0.3016
   -2.6558   -1.0364   -0.1704
   -1.4656    0.9714    1.7886
   -2.9387    0.0150    2.0582
   -1.2406   -4.3992    2.2411
   -0.5438   -3.2991    3.4502
   -0.3030   -3.4463   -0.1992
    3.0050   -3.4555    1.3779
    5.1575   -3.4448    0.1345
    3.0108   -3.4430   -3.5816
    0.8578   -3.4501   -2.3378
@<BUDE>CONF  20
   -0.8036   -2.9266   -2.5562
   -1.7514   -2.0780   -1.9034
   -2.9061   -2.6462   -1.4337
   -3.6270   -3.6236   -2.1299
   -4.8016   -4.1656   -1.5946
   -5.2610   -3.7277   -0.3527
   -4.5429   -2.7504    0.3465
   -3.3681   -2.2074   -0.1872
   -2.6208   -1.2497    0.4462
   -2.3946   -1.3955    1.8507
   -1.5453   -0.2288    2.3527
   -0.1982   -0.2333    1.6316
    0.6412    0.9198    2.1278
    1.6912    0.7105    2.6587
    0.2052    2.1878    1.9715
    1.0343    3.2468    2.4573
    2.3426    3.2468    1.7033
    3.4078    3.2468    2.3183
    2.3431    3.2468    0.3733
    3.5682    3.2468   -0.3347
    4.7805    3.2450    0.3654
    5.9924    3.2503   -0.3357
    5.9921    3.2496   -1.7342
    4.7797    3.2492   -2.4341
    3.5669    3.2468   -1.7346
    7.6372    3.2566   -2.6847
   -5.5403   -5.1775   -2.3246
   -6.1317   -5.9871   -2.9080
   -1.2637   -3.3753   -3.4340
    0.0603   -2.3387   -2.8592
   -0.4873   -3.7104   -1.8710
   -3.3230   -4.0031   -3.0942
   -6.1669   -4.1441    0.0625
   -4.9486   -2.4525    1.3021
   -3.3486   -1.4002    2.3737
   -1.8723   -2.3311    2.0393
   -2.0602    0.7083    2.1520
   -1.3830   -0.3319    3.4236
    0.3182   -1.1696    1.8322
   -0.3591   -0.1294    0.5606
    1.2276    3.0996    3.5177
    0.5308    4.1997    2.3086
    1.4684    3.2468   -0.1317
    4.7764    3.2376    1.4454
    6.9289    3.2483    0.2020
    4.7822    3.2501   -3.5141
    2.6292    3.2430   -2.2703
@<BUDE>CONF  21
    0.5975   -4.2814    1.8916
   -0.1832   -3.2127    1.3503
   -0.8035   -3.4161    0.1459
   -1.4308   -4.6161   -0.2092
   -2.0479   -4.7609   -1.4574
   -2.0386   -3.6975   -2.3599
   -1.4123   -2.4958   -2.0086
   -0.7948   -2.3494   -0.7608
   -0.1659   -1.2011   -0.3573
   -0.8034    0.0474   -0.6396
   -2.1643    0.0917    0.0538
   -1.9696   -0.0341    1.5641
   -1.1302    1.1190    2.0603
   -0.0802    0.9097    2.5912
   -1.5662    2.3870    1.9040
   -0.7371    3.4460    2.3898
    0.5712    3.4460    1.6358
    1.6364    3.4460    2.2508
    0.5717    3.4460    0.3058
    1.7968    3.4460   -0.4022
    3.0091    3.4442    0.2979
    4.2210    3.4495   -0.4032
    4.2207    3.4488   -1.8017
    3.0083    3.4484   -2.5016
    1.7955    3.4460   -1.8021
    5.8658    3.4558   -2.7522
   -2.6947   -6.0085   -1.8145
   -3.2123   -7.0064   -2.1008
    1.4065   -4.5224    1.2052
    1.0127   -3.9770    2.8501
   -0.0338   -5.1565    2.0307
   -1.4715   -5.4743    0.4452
   -2.5139   -3.8065   -3.3236
   -1.4385   -1.7100   -2.7489
   -0.1836    0.8629   -0.2730
   -0.9411    0.1503   -1.7139
   -2.6558    1.0361   -0.1704
   -2.7802   -0.7317   -0.3016
   -2.9387   -0.0153    2.0582
   -1.4656   -0.9717    1.7886
   -0.5438    3.2988    3.4502
   -1.2406    4.3989    2.2411
   -0.3030    3.4460   -0.1992
    3.0050    3.4368    1.3779
    5.1575    3.4475    0.1345
    3.0108    3.4493   -3.5816
    0.8578    3.4422   -2.3378
@<BUDE>CONF  22
   -3.6302   -3.2241    2.9172
   -3.6864   -2.2816    1.8433
   -3.9487   -2.7559    0.5852
   -4.8898   -3.7565    0.3154
   -5.1116   -4.1981   -0.9944
   -4.3870   -3.6356   -2.0450
   -3.4450   -2.6348   -1.7793
   -3.2220   -2.1920   -0.4702
   -2.3157   -1.2175   -0.1445
   -1.0356   -1.2524   -0.7809
   -0.1862   -0.0857   -0.2789
    0.0085   -0.2115    1.2314
    0.8479    0.9416    1.7276
    1.8979    0.7323    2.2585
    0.4119    2.2096    1.5713
    1.2410    3.2686    2.0571
    2.5493    3.2686    1.3031
    3.6145    3.2686    1.9181
    2.5498    3.2686   -0.0269
    3.7749    3.2686   -0.7349
    4.9872    3.2668   -0.0348
    6.1991    3.2721   -0.7359
    6.1988    3.2714   -2.1344
    4.9864    3.2710   -2.8343
    3.7736    3.2686   -2.1348
    7.8439    3.2784   -3.0849
   -6.0890   -5.2352   -1.2621
   -6.8707   -6.0649   -1.4769
   -2.8371   -3.9439    2.7260
   -3.4282   -2.6998    3.8489
   -4.5828   -3.7444    2.9924
   -5.4813   -4.2302    1.0850
   -4.5561   -3.9745   -3.0564
   -2.9160   -2.2385   -2.6335
   -0.5378   -2.1906   -0.5446
   -1.1630   -1.1701   -1.8583
    0.7836   -0.1039   -0.7716
   -0.6896    0.8526   -0.5021
   -0.9606   -0.1927    1.7255
    0.5125   -1.1491    1.4559
    1.4343    3.1214    3.1175
    0.7375    4.2215    1.9084
    1.6751    3.2686   -0.5319
    4.9831    3.2594    1.0452
    7.1356    3.2701   -0.1982
    4.9889    3.2719   -3.9143
    2.8359    3.2648   -2.6705
@<BUDE>CONF  23
   -7.0742   -1.4242    1.9757
   -5.8686   -1.1193    1.2698
   -5.4083    0.1703    1.3113
   -6.2405    1.2927    1.2255
   -5.7073    2.5862    1.2742
   -4.3303    2.7611    1.4098
   -3.4947    1.6412    1.4959
   -4.0263    0.3470    1.4474
   -3.2634   -0.7882    1.5264
   -2.0407   -0.8275    0.7859
   -1.3518   -2.1724    1.0130
   -0.0453   -2.2144    0.2218
    0.8675   -1.1106    0.7001
    0.5118   -0.3763    1.5733
    2.0861   -0.9532    0.1410
    2.9152    0.1058    0.6268
    4.2235    0.1058   -0.1272
    5.2887    0.1058    0.4878
    4.2240    0.1058   -1.4572
    5.4491    0.1058   -2.1652
    6.6614    0.1040   -1.4651
    7.8733    0.1093   -2.1662
    7.8730    0.1086   -3.5647
    6.6606    0.1082   -4.2646
    5.4478    0.1058   -3.5651
    9.5181    0.1156   -4.5152
   -6.5789    3.7416    1.1844
   -7.2755    4.6663    1.1126
   -7.8908   -0.8297    1.5712
   -7.3032   -2.4816    1.8613
   -6.9443   -1.1928    3.0308
   -7.3130    1.2227    1.1196
   -3.9163    3.7579    1.4476
   -2.4384    1.8408    1.5997
   -2.2535   -0.7042   -0.2739
   -1.3871   -0.0249    1.1210
   -1.1376   -2.2967    2.0724
   -2.0041   -2.9760    0.6775
    0.4400   -3.1763    0.3727
   -0.2567   -2.0762   -0.8364
    3.1085   -0.0414    1.6872
    2.4117    1.0587    0.4781
    3.3493    0.1058   -1.9622
    6.6573    0.0966   -0.3851
    8.8098    0.1073   -1.6285
    6.6631    0.1091   -5.3446
    4.5101    0.1020   -4.1008
@<BUDE>CONF  24
   -7.0742    1.4239    1.9757
   -5.8686    1.1190    1.2698
   -5.4083   -0.1706    1.3113
   -6.2405   -1.2930    1.2255
   -5.7073   -2.5865    1.2742
   -4.3303   -2.7614    1.4098
   -3.4947   -1.6415    1.4959
   -4.0263   -0.3473    1.4474
   -3.2634    0.7879    1.5264
   -2.0407    0.8272    0.7859
   -1.3518    2.1721    1.0130
   -0.0453    2.2141    0.2218
    0.8675    1.1103    0.7001
    0.5118    0.3760    1.5733
    2.0861    0.9529    0.1410
    2.9152   -0.1061    0.6268
    4.2235   -0.1061   -0.1272
    5.2887   -0.1061    0.4878
    4.2240   -0.1061   -1.4572
    5.4491   -0.1061   -2.1652
    6.6614   -0.1079   -1.4651
    7.8733   -0.1026   -2.1662
    7.8730   -0.1033   -3.5647
    6.6606   -0.1037   -4.2646
    5.4478   -0.1061   -3.5651
    9.5181   -0.0963   -4.5152
   -6.5789   -3.7419    1.1844
   -7.2755   -4.6666    1.1126
   -6.9356    1.2175    3.0349
   -7.3176    2.4755    1.8392
   -7.8852    0.8102    1.5890
   -7.3130   -1.2230    1.1196
   -3.9163   -3.7582    1.4476
   -2.4384   -1.8411    1.5997
   -1.3871    0.0246    1.1210
   -2.2535    0.7039   -0.2739
   -2.0041    2.9757    0.6775
   -1.1376    2.2964    2.0724
   -0.2567    2.0759   -0.8364
    0.4400    3.1760    0.3727
    2.4117   -1.0590    0.4781
    3.1085    0.0411    1.6872
    3.3493   -0.1061   -1.9622
    6.6573   -0.1153   -0.3851
    8.8098   -0.1046   -1.6285
    6.6631   -0.1028   -5.3446
    4.5101   -0.1099   -4.1008
@<BUDE>CONF  25
   -5.2171    1.1015    1.6579
   -3.8570    1.2904    1.2586
   -3.0892    2.1620    1.9849
   -3.1339    2.2551    3.3810
   -2.3225    3.1680    4.0652
   -1.4582    3.9958    3.3490
   -1.4106    3.9057    1.9528
   -2.2213    2.9934    1.2671
   -2.2218    2.8566   -0.0961
   -0.9610    2.8608   -0.7710
   -0.1117    1.6941   -0.2689
   -0.8283    0.3781   -0.5675
    0.0111   -0.7750   -0.0713
    1.0611   -0.5657    0.4596
   -0.4249   -2.0430   -0.2276
    0.4042   -3.1020    0.2582
    1.7125   -3.1020   -0.4958
    2.7777   -3.1020    0.1192
    1.7130   -3.1020   -1.8258
    2.9381   -3.1020   -2.5338
    4.1504   -3.1038   -1.8337
    5.3623   -3.0985   -2.5348
    5.3620   -3.0992   -3.9333
    4.1496   -3.0996   -4.6332
    2.9368   -3.1020   -3.9337
    7.0071   -3.0922   -4.8838
   -2.3771    3.2558    5.5115
   -2.4203    3.3266    6.6685
   -5.7475    2.0494    1.5959
   -5.6904    0.3765    0.9992
   -5.2462    0.7352    2.6820
   -3.7814    1.6424    3.9907
   -0.8311    4.7009    3.8743
   -0.7221    4.5723    1.4548
   -1.1219    2.7570   -1.8420
   -0.4447    3.7972   -0.5704
    0.8526    1.7036   -0.7726
    0.0382    1.7893    0.8044
   -1.7925    0.3670   -0.0637
   -0.9781    0.2813   -1.6407
   -0.0993   -4.0549    0.1095
    0.5975   -2.9548    1.3186
    0.8383   -3.1020   -2.3308
    4.1463   -3.1112   -0.7537
    6.2988   -3.1005   -1.9971
    4.1521   -3.0987   -5.7132
    1.9991   -3.1058   -4.4694
@<BUDE>CONF  26
   -1.4708    5.8356    1.4768
   -1.7757    4.4637    1.2130
   -0.7344    3.5764    1.1407
    0.4852    3.8632    0.5162
    1.5115    2.9118    0.4762
    1.3185    1.6623    1.0651
    0.1002    1.3718    1.6905
   -0.9271    2.3220    1.7315
   -2.1406    2.0997    2.3271
   -2.7713    0.8343    2.1127
   -3.0366    0.6449    0.6199
   -3.7105   -0.7071    0.3908
   -2.7977   -1.8109    0.8691
   -3.1534   -2.5452    1.7423
   -1.5791   -1.9683    0.3100
   -0.7499   -3.0273    0.7958
    0.5583   -3.0273    0.0418
    1.6235   -3.0273    0.6568
    0.5588   -3.0273   -1.2882
    1.7839   -3.0273   -1.9962
    2.9962   -3.0291   -1.2961
    4.2081   -3.0238   -1.9972
    4.2078   -3.0245   -3.3957
    2.9955   -3.0249   -4.0956
    1.7826   -3.0273   -3.3961
    5.8529   -3.0175   -4.3462
    2.7708    3.2198   -0.1734
    3.7784    3.4655   -0.6929
   -0.8356    6.2242    0.6835
   -2.3938    6.4102    1.5177
   -0.9514    5.9143    2.4295
    0.6950    4.8111    0.0431
    2.1086    0.9266    1.0356
    0.0111    0.3884    2.1279
   -2.1199    0.0388    2.4684
   -3.7140    0.8017    2.6549
   -3.6885    1.4395    0.2631
   -2.0946    0.6765    0.0766
   -4.6460   -0.7453    0.9449
   -3.9113   -0.8378   -0.6704
   -1.2535   -3.9802    0.6471
   -0.5567   -2.8801    1.8562
   -0.3159   -3.0273   -1.7932
    2.9921   -3.0365   -0.2161
    5.1446   -3.0258   -1.4595
    2.9980   -3.0240   -5.1756
    0.8449   -3.0311   -3.9318
@<BUDE>CONF  27
   -6.2709   -0.4276    1.8737
   -4.9108   -0.6164    1.4744
   -4.1430   -1.4881    2.2007
   -4.1877   -1.5812    3.5968
   -3.3763   -2.4941    4.2810
   -2.5120   -3.3219    3.5648
   -2.4644   -3.2318    2.1686
   -3.2751   -2.3195    1.4828
   -3.2756   -2.1827    0.1197
   -2.0148   -2.1869   -0.5552
   -1.1655   -1.0202   -0.0532
    0.1816   -1.0247   -0.7743
    1.0210    0.1284   -0.2781
    2.0710   -0.0809    0.2528
    0.5850    1.3964   -0.4344
    1.4141    2.4554    0.0514
    2.7224    2.4554   -0.7026
    3.7876    2.4554   -0.0876
    2.7229    2.4554   -2.0326
    3.9480    2.4554   -2.7406
    5.1603    2.4536   -2.0405
    6.3722    2.4589   -2.7416
    6.3719    2.4582   -4.1401
    5.1595    2.4578   -4.8400
    3.9467    2.4554   -4.1405
    8.0170    2.4652   -5.0906
   -3.4309   -2.5819    5.7273
   -3.4741   -2.6526    6.8843
   -6.2992   -0.0361    2.8884
   -6.7518    0.2772    1.1987
   -6.7945   -1.3806    1.8371
   -4.8351   -0.9684    4.2065
   -1.8849   -4.0270    4.0901
   -1.7759   -3.8984    1.6706
   -1.4985   -3.1233   -0.3546
   -2.1757   -2.0830   -1.6262
   -1.6804   -0.0831   -0.2539
   -1.0032   -1.1233    1.0177
    0.6980   -1.9610   -0.5737
    0.0207   -0.9208   -1.8453
    1.6074    2.3082    1.1118
    0.9106    3.4083   -0.0973
    1.8482    2.4554   -2.5376
    5.1562    2.4462   -0.9605
    7.3087    2.4569   -2.2039
    5.1620    2.4587   -5.9200
    3.0090    2.4516   -4.6762
@<BUDE>CONF  28
   -0.0232    0.8477   -3.4549
   -1.0666    1.7036   -2.9823
   -2.1850    1.1192   -2.4488
   -2.7896   -0.0254   -2.9818
   -3.9327   -0.5748   -2.3889
   -4.4774    0.0242   -1.2532
   -3.8757    1.1689   -0.7173
   -2.7326    1.7195   -1.3089
   -2.0975    2.8365   -0.8337
   -1.9153    2.9542    0.5798
   -1.0659    1.7875    1.0818
   -0.8712    1.9133    2.5921
   -0.0318    0.7602    3.0883
    1.0182    0.9695    3.6192
   -0.4678   -0.5078    2.9320
    0.3613   -1.5668    3.4178
    1.6696   -1.5668    2.6638
    2.7348   -1.5668    3.2788
    1.6701   -1.5668    1.3338
    2.8952   -1.5668    0.6258
    4.1075   -1.5686    1.3259
    5.3194   -1.5633    0.6248
    5.3191   -1.5640   -0.7737
    4.1067   -1.5644   -1.4736
    2.8939   -1.5668   -0.7741
    6.9642   -1.5570   -1.7242
   -4.5506   -1.7607   -2.9495
   -5.0454   -2.7094   -3.3975
   -0.4072    0.2149   -4.2522
    0.7974    1.4529   -3.8346
    0.3329    0.2252   -2.6366
   -2.4156   -0.5341   -3.8580
   -5.3592   -0.3975   -0.7938
   -4.3433    1.5866    0.1620
   -1.4112    3.8919    0.8043
   -2.8844    2.9354    1.0738
   -1.5693    0.8492    0.8586
   -0.0961    1.8057    0.5891
   -0.3672    2.8509    2.8166
   -1.8403    1.8945    3.0862
   -0.1422   -2.5197    3.2691
    0.5546   -1.4196    4.4782
    0.7954   -1.5668    0.8288
    4.1034   -1.5760    2.4059
    6.2559   -1.5653    1.1625
    4.1092   -1.5635   -2.5536
    1.9562   -1.5706   -1.3098
@<BUDE>CONF  29
   -1.6958   -0.2512   -3.0587
   -1.1891   -0.5108   -1.7470
   -0.0938   -1.3253   -1.6308
    1.0007   -1.2801   -2.5024
    2.0912   -2.1408   -2.3295
    2.0892   -3.0552   -1.2764
    0.9966   -3.1034   -0.4026
   -0.0947   -2.2435   -0.5741
   -1.1927   -2.2409    0.2453
   -0.9775   -2.3414    1.6554
   -2.3237   -2.3203    2.3780
   -3.0403   -1.0043    2.0794
   -2.2009    0.1488    2.5756
   -1.1509   -0.0605    3.1065
   -2.6369    1.4168    2.4193
   -1.8078    2.4758    2.9051
   -0.4995    2.4758    2.1511
    0.5657    2.4758    2.7661
   -0.4990    2.4758    0.8211
    0.7261    2.4758    0.1131
    1.9384    2.4740    0.8132
    3.1503    2.4793    0.1121
    3.1500    2.4786   -1.2864
    1.9376    2.4782   -1.9863
    0.7248    2.4758   -1.2868
    4.7951    2.4856   -2.2369
    3.2196   -2.0852   -3.2385
    4.1226   -2.0412   -3.9653
   -2.0017   -1.1876   -3.5205
   -2.5517    0.4170   -2.9906
   -0.9187    0.2143   -3.6614
    1.0612   -0.5952   -3.3353
    2.9292   -3.7203   -1.1406
    1.0534   -3.8319    0.3927
   -0.4614   -3.2728    1.8787
   -0.3730   -1.5016    1.9915
   -2.9345   -3.1516    2.0325
   -2.1620   -2.4093    3.4502
   -3.1901   -0.9075    1.0062
   -4.0045   -0.9932    2.5832
   -1.6145    2.3286    3.9655
   -2.3113    3.4287    2.7564
   -1.3737    2.4758    0.3161
    1.9343    2.4666    1.8932
    4.0868    2.4773    0.6498
    1.9401    2.4791   -3.0663
   -0.2129    2.4720   -1.8225
@<BUDE>CONF  30
   -4.6613    1.9809    2.7610
   -3.5340    1.8014    1.8997
   -3.7305    1.1475    0.7120
   -4.5474    0.0189    0.5754
   -4.7070   -0.6046   -0.6679
   -4.0449   -0.0967   -1.7854
   -3.2271    1.0317   -1.6528
   -3.0664    1.6564   -0.4103
   -2.2815    2.7621   -0.2147
   -1.0014    2.7970   -0.8511
   -0.1520    1.6303   -0.3491
    0.0427    1.7561    1.1612
    0.8821    0.6030    1.6574
    1.9321    0.8123    2.1883
    0.4461   -0.6650    1.5011
    1.2752   -1.7240    1.9869
    2.5835   -1.7240    1.2329
    3.6487   -1.7240    1.8479
    2.5840   -1.7240   -0.0971
    3.8091   -1.7240   -0.8051
    5.0214   -1.7258   -0.1050
    6.2333   -1.7205   -0.8061
    6.2330   -1.7212   -2.2046
    5.0206   -1.7216   -2.9045
    3.8078   -1.7240   -2.2050
    7.8781   -1.7142   -3.1551
   -5.5557   -1.7731   -0.7977
   -6.2345   -2.7080   -0.9022
   -5.0568    1.0085    3.0470
   -4.3533    2.5242    3.6519
   -5.4299    2.5463    2.2383
   -5.0855   -0.4210    1.4020
   -4.1663   -0.5758   -2.7457
   -2.7415    1.3775   -2.5533
   -1.1288    2.7147   -1.9285
   -0.5036    3.7352   -0.6148
   -0.6554    0.6920   -0.5723
    0.8178    1.6485   -0.8418
    0.5467    2.6937    1.3857
   -0.9264    1.7373    1.6553
    0.7717   -2.6769    1.8382
    1.4685   -1.5768    3.0473
    1.7093   -1.7240   -0.6021
    5.0173   -1.7332    0.9750
    7.1698   -1.7225   -0.2684
    5.0231   -1.7207   -3.9845
    2.8701   -1.7278   -2.7407
@<BUDE>CONF  31
    0.6420    0.3795    4.1475
   -0.4092    0.2262    3.1904
   -1.4343   -0.6306    3.4935
   -1.2486   -1.8708    4.1156
   -2.3393   -2.7015    4.3989
   -3.6276   -2.2903    4.0578
   -3.8174   -1.0507    3.4356
   -2.7279   -0.2188    3.1516
   -2.8468    1.0039    2.5453
   -3.7400    1.1177    1.4344
   -3.2852    0.1788    0.3180
   -1.8797    0.5710   -0.1351
   -1.4302   -0.3569   -1.2385
   -2.1526   -1.2304   -1.6170
   -0.2116   -0.1995   -1.7976
    0.6175    0.8595   -1.3118
    1.9258    0.8595   -2.0658
    2.9910    0.8595   -1.4508
    1.9263    0.8595   -3.3958
    3.1514    0.8595   -4.1038
    4.3637    0.8577   -3.4037
    5.5756    0.8630   -4.1048
    5.5753    0.8623   -5.5033
    4.3629    0.8619   -6.2032
    3.1501    0.8595   -5.5037
    7.2204    0.8693   -6.4538
   -2.1351   -3.9841    5.0436
   -1.9724   -5.0103    5.5594
    1.1275   -0.5807    4.3089
    1.3701    1.0965    3.7739
    0.2269    0.7392    5.0867
   -0.2771   -2.2445    4.4037
   -4.4708   -2.9292    4.2752
   -4.8373   -0.7883    3.1962
   -4.7460    0.8468    1.7479
   -3.7370    2.1426    1.0692
   -3.2744   -0.8449    0.6861
   -3.9712    0.2552   -0.5230
   -1.8893    1.5944   -0.5042
   -1.1925    0.4943    0.7048
    0.8108    0.7123   -0.2514
    0.1140    1.8124   -1.4605
    1.0516    0.8595   -3.9008
    4.3596    0.8503   -2.3237
    6.5121    0.8610   -3.5671
    4.3654    0.8628   -7.2832
    2.2124    0.8557   -6.0394
@<BUDE>CONF  32
    0.6420   -0.3799    4.1475
   -0.4092   -0.2266    3.1904
   -1.4343    0.6302    3.4935
   -1.2486    1.8704    4.1156
   -2.3393    2.7011    4.3989
   -3.6276    2.2899    4.0578
   -3.8174    1.0503    3.4356
   -2.7279    0.2184    3.1516
   -2.8468   -1.0043    2.5453
   -3.7400   -1.1181    1.4344
   -3.2852   -0.1792    0.3180
   -1.8797   -0.5714   -0.1351
   -1.4302    0.3565   -1.2385
   -2.1526    1.2300   -1.6170
   -0.2116    0.1991   -1.7976
    0.6175   -0.8599   -1.3118
    1.9258   -0.8599   -2.0658
    2.9910   -0.8599   -1.4508
    1.9263   -0.8599   -3.3958
    3.1514   -0.8599   -4.1038
    4.3637   -0.8617   -3.4037
    5.5756   -0.8564   -4.1048
    5.5753   -0.8571   -5.5033
    4.3629   -0.8575   -6.2032
    3.1501   -0.8599   -5.5037
    7.2204   -0.8501   -6.4538
   -2.1351    3.9837    5.0436
   -1.9724    5.0099    5.5594
    0.2308   -0.7648    5.0783
    1.3836   -1.0766    3.7623
    1.1102    0.5853    4.3288
   -0.2771    2.2441    4.4037
   -4.4708    2.9288    4.2752
   -4.8373    0.7879    3.1962
   -3.7370   -2.1430    1.0692
   -4.7460   -0.8472    1.7479
   -3.9712   -0.2556   -0.5230
   -3.2744    0.8445    0.6861
   -1.1925   -0.4947    0.7048
   -1.8893   -1.5948   -0.5042
    0.1140   -1.8128   -1.4605
    0.8108   -0.7127   -0.2514
    1.0516   -0.8599   -3.9008
    4.3596   -0.8691   -2.3237
    6.5121   -0.8584   -3.5671
    4.3654   -0.8566   -7.2832
    2.2124   -0.8637   -6.0394
@<BUDE>CONF  33
   -5.5567    0.4324    4.4291
   -4.5336    0.6201    3.4478
   -4.9116    1.0251    2.1949
   -5.9026    1.9850    1.9574
   -6.2433    2.3560    0.6512
   -5.5887    1.7632   -0.4283
   -4.5971    0.8030   -0.1949
   -4.2551    0.4308    1.1106
   -3.2952   -0.5012    1.4054
   -2.0725   -0.4619    0.6649
   -1.3836    0.8830    0.8920
   -0.0771    0.9250    0.1008
    0.8357   -0.1788    0.5791
    0.4800   -0.9131    1.4523
    2.0543   -0.3362    0.0200
    2.8834   -1.3952    0.5058
    4.1917   -1.3952   -0.2482
    5.2569   -1.3952    0.3668
    4.1922   -1.3952   -1.5782
    5.4173   -1.3952   -2.2862
    6.6296   -1.3970   -1.5861
    7.8415   -1.3917   -2.2872
    7.8412   -1.3924   -3.6857
    6.6288   -1.3928   -4.3856
    5.4160   -1.3952   -3.6861
    9.4863   -1.3854   -4.6362
   -7.2714    3.3514    0.4171
   -8.0938    4.1476    0.2291
   -6.2467   -0.3374    4.0900
   -5.1041    0.1259    5.3698
   -6.0962    1.3662    4.5728
   -6.4446    2.4791    2.7502
   -5.8496    2.0476   -1.4369
   -4.1267    0.3804   -1.0704
   -1.4189   -1.2645    1.0000
   -2.2853   -0.5852   -0.3949
   -2.0359    1.6866    0.5565
   -1.1694    1.0073    1.9514
   -0.2885    0.7868   -0.9574
    0.4082    1.8869    0.2517
    2.3799   -2.3481    0.3571
    3.0767   -1.2480    1.5662
    3.3175   -1.3952   -2.0832
    6.6255   -1.4044   -0.5061
    8.7780   -1.3937   -1.7495
    6.6313   -1.3919   -5.4656
    4.4783   -1.3990   -4.2218
@<BUDE>CONF  34
   -0.5105   -5.7785    2.6918
   -0.4022   -4.3531    2.6559
    0.8425   -3.8075    2.4832
    1.9970   -4.3010    3.1023
    3.2413   -3.6976    2.8846
    3.3341   -2.5909    2.0408
    2.1819   -2.0944    1.4199
    0.9368   -2.6966    1.6365
   -0.2263   -2.2594    1.0596
   -0.4638   -0.8500    1.0136
   -1.8063   -0.5825    0.3348
   -2.0600    0.9235    0.2856
   -3.3868    1.1879   -0.3852
   -4.0511    0.2754   -0.7779
   -3.8228    2.4559   -0.5415
   -2.9937    3.5149   -0.0557
   -1.6854    3.5149   -0.8097
   -0.6202    3.5149   -0.1947
   -1.6849    3.5149   -2.1397
   -0.4598    3.5149   -2.8477
    0.7525    3.5131   -2.1476
    1.9644    3.5184   -2.8487
    1.9641    3.5177   -4.2472
    0.7517    3.5173   -4.9471
   -0.4611    3.5149   -4.2476
    3.6092    3.5247   -5.1977
    4.4306   -4.2173    3.5311
    5.3824   -4.6326    4.0480
    0.0748   -6.1652    3.5234
   -1.5538   -6.0591    2.8202
   -0.1349   -6.1937    1.7589
    1.9900   -5.1535    3.7654
    4.2928   -2.1235    1.8710
    2.3176   -1.2362    0.7784
   -0.4842   -0.4518    2.0258
    0.3303   -0.3661    0.4488
   -1.7869   -0.9796   -0.6779
   -2.6013   -1.0653    0.8991
   -2.0804    1.3217    1.2978
   -1.2660    1.4074   -0.2791
   -2.8004    3.3677    1.0047
   -3.4972    4.4678   -0.2044
   -2.5596    3.5149   -2.6447
    0.7484    3.5057   -1.0676
    2.9009    3.5164   -2.3110
    0.7542    3.5182   -6.0271
   -1.3988    3.5111   -4.7833
@<BUDE>CONF  35
   -6.6998   -0.2181    3.2539
   -5.5025   -0.4865    2.5196
   -5.4347   -0.0549    1.2212
   -6.5050   -0.1329    0.3223
   -6.3715    0.3263   -0.9934
   -5.1579    0.8685   -1.4160
   -4.0852    0.9482   -0.5201
   -4.2170    0.4895    0.7960
   -3.2067    0.5393    1.7199
   -1.8913    0.1722    1.2958
   -0.9243    0.2975    2.4723
    0.4812   -0.0947    2.0192
    0.9307    0.8332    0.9158
    0.2083    1.7067    0.5373
    2.1493    0.6758    0.3567
    2.9784   -0.3832    0.8425
    4.2867   -0.3832    0.0885
    5.3519   -0.3832    0.7035
    4.2872   -0.3832   -1.2415
    5.5123   -0.3832   -1.9495
    6.7246   -0.3850   -1.2494
    7.9365   -0.3797   -1.9505
    7.9362   -0.3804   -3.3490
    6.7238   -0.3808   -4.0489
    5.5110   -0.3832   -3.3494
    9.5813   -0.3734   -4.2995
   -7.4869    0.2406   -1.9159
   -8.3789    0.1723   -2.6544
   -7.5420   -0.6999    2.7617
   -6.5991   -0.6066    4.2651
   -6.8676    0.8562    3.2926
   -7.4684   -0.5417    0.5892
   -5.0522    1.2235   -2.4305
   -3.1723    1.3774   -0.9058
   -1.8978   -0.8561    0.9405
   -1.5712    0.8322    0.4923
   -0.9163    1.3256    2.8281
   -1.2429   -0.3626    3.2763
    1.1684   -0.0180    2.8591
    0.4716   -1.1181    1.6501
    2.4749   -1.3361    0.6938
    3.1717   -0.2360    1.9029
    3.4125   -0.3832   -1.7465
    6.7205   -0.3924   -0.1694
    8.8730   -0.3817   -1.4128
    6.7263   -0.3799   -5.1289
    4.5733   -0.3870   -3.8851
@<BUDE>CONF  36
   -6.6998    0.2177    3.2539
   -5.5025    0.4861    2.5196
   -5.4347    0.0545    1.2212
   -6.5050    0.1325    0.3223
   -6.3715   -0.3267   -0.9934
   -5.1579   -0.8689   -1.4160
   -4.0852   -0.9486   -0.5201
   -4.2170   -0.4899    0.7960
   -3.2067   -0.5397    1.7199
   -1.8913   -0.1726    1.2958
   -0.9243   -0.2979    2.4723
    0.4812    0.0943    2.0192
    0.9307   -0.8336    0.9158
    0.2083   -1.7071    0.5373
    2.1493   -0.6762    0.3567
    2.9784    0.3828    0.8425
    4.2867    0.3828    0.0885
    5.3519    0.3828    0.7035
    4.2872    0.3828   -1.2415
    5.5123    0.3828   -1.9495
    6.7246    0.3810   -1.2494
    7.9365    0.3863   -1.9505
    7.9362    0.3856   -3.3490
    6.7238    0.3852   -4.0489
    5.5110    0.3828   -3.3494
    9.5813    0.3926   -4.2995
   -7.4869   -0.2410   -1.9159
   -8.3789   -0.1727   -2.6544
   -6.8535   -0.8576    3.3153
   -6.6095    0.6297    4.2568
   -7.5459    0.6773    2.7473
   -7.4684    0.5413    0.5892
   -5.0522   -1.2239   -2.4305
   -3.1723   -1.3778   -0.9058
   -1.5712   -0.8326    0.4923
   -1.8978    0.8557    0.9405
   -1.2429    0.3622    3.2763
   -0.9163   -1.3260    2.8281
    0.4716    1.1177    1.6501
    1.1684    0.0176    2.8591
    3.1717    0.2356    1.9029
    2.4749    1.3357    0.6938
    3.4125    0.3828   -1.7465
    6.7205    0.3736   -0.1694
    8.8730    0.3843   -1.4128
    6.7263    0.3861   -5.1289
    4.5733    0.3790   -3.8851
@<BUDE>CONF  37
   -0.2106   -0.9522    4.3551
   -0.3144   -0.1629    3.1672
   -0.6456    1.1596    3.3014
   -1.6080    1.6291    4.2031
   -1.9012    2.9952    4.2922
   -1.2273    3.9011    3.4734
   -0.2642    3.4354    2.5704
    0.0302    2.0698    2.4800
    0.9604    1.5512    1.6183
    0.9933    2.0591    0.2819
   -0.3492    1.7916   -0.3969
   -0.6029    0.2856   -0.4461
   -1.9297    0.0212   -1.1169
   -2.5940    0.9337   -1.5096
   -2.3657   -1.2468   -1.2732
   -1.5366   -2.3058   -0.7874
   -0.2283   -2.3058   -1.5414
    0.8369   -2.3058   -0.9264
   -0.2278   -2.3058   -2.8714
    0.9973   -2.3058   -3.5794
    2.2096   -2.3076   -2.8793
    3.4215   -2.3023   -3.5804
    3.4212   -2.3030   -4.9789
    2.2088   -2.3034   -5.6788
    0.9960   -2.3058   -4.9793
    5.0663   -2.2960   -5.9294
   -2.8999    3.4703    5.2298
   -3.6989    3.8511    5.9797
   -1.1699   -0.9618    4.8682
    0.0701   -1.9695    4.0904
    0.5469   -0.5248    5.0087
   -2.1628    0.9784    4.8627
   -1.4515    4.9555    3.5400
    0.2231    4.1846    1.9640
    1.1802    3.1307    0.3050
    1.7858    1.5641   -0.2755
   -1.1442    2.2744    0.1674
   -0.3298    2.1887   -1.4096
    0.1911   -0.1983   -1.0108
   -0.6233   -0.1126    0.5661
   -2.0401   -3.2587   -0.9361
   -1.3433   -2.1586    0.2730
   -1.1025   -2.3058   -3.3764
    2.2055   -2.3150   -1.7993
    4.3580   -2.3043   -3.0427
    2.2113   -2.3025   -6.7588
    0.0583   -2.3096   -5.5150
@<BUDE>CONF  38
   -0.2106    0.9518    4.3551
   -0.3144    0.1625    3.1672
   -0.6456   -1.1600    3.3014
   -1.6080   -1.6295    4.2031
   -1.9012   -2.9956    4.2922
   -1.2273   -3.9015    3.4734
   -0.2642   -3.4358    2.5704
    0.0302   -2.0702    2.4800
    0.9604   -1.5516    1.6183
    0.9933   -2.0595    0.2819
   -0.3492   -1.7920   -0.3969
   -0.6029   -0.2860   -0.4461
   -1.9297   -0.0216   -1.1169
   -2.5940   -0.9341   -1.5096
   -2.3657    1.2464   -1.2732
   -1.5366    2.3054   -0.7874
   -0.2283    2.3054   -1.5414
    0.8369    2.3054   -0.9264
   -0.2278    2.3054   -2.8714
    0.9973    2.3054   -3.5794
    2.2096    2.3036   -2.8793
    3.4215    2.3089   -3.5804
    3.4212    2.3082   -4.9789
    2.2088    2.3078   -5.6788
    0.9960    2.3054   -4.9793
    5.0663    2.3152   -5.9294
   -2.8999   -3.4707    5.2298
   -3.6989   -3.8515    5.9797
    0.5653    0.5399    4.9968
    0.0439    1.9755    4.0884
   -1.1624    0.9397    4.8820
   -2.1628   -0.9788    4.8627
   -1.4515   -4.9559    3.5400
    0.2231   -4.1850    1.9640
    1.7858   -1.5645   -0.2755
    1.1802   -3.1311    0.3050
   -0.3298   -2.1891   -1.4096
   -1.1442   -2.2748    0.1674
   -0.6233    0.1122    0.5661
    0.1911    0.1979   -1.0108
   -1.3433    2.1582    0.2730
   -2.0401    3.2583   -0.9361
   -1.1025    2.3054   -3.3764
    2.2055    2.2962   -1.7993
    4.3580    2.3069   -3.0427
    2.2113    2.3087   -6.7588
    0.0583    2.3016   -5.5150
@<BUDE>CONF  39
   -5.7463    0.0614    2.8507
   -4.5513   -0.2813    2.1440
   -4.2737   -1.6098    1.9575
   -5.2435   -2.5651    1.6309
   -4.8949   -3.9093    1.4533
   -3.5655   -4.3037    1.6031
   -2.5928   -3.3513    1.9297
   -2.9397   -2.0068    2.1076
   -2.0363   -1.0277    2.4274
   -0.7756   -1.0319    1.7525
   -1.0026   -0.8683    0.2503
    0.3445   -0.8728   -0.4708
    1.1839    0.2803    0.0254
    2.2339    0.0710    0.5563
    0.7479    1.5483   -0.1309
    1.5770    2.6073    0.3549
    2.8853    2.6073   -0.3991
    3.9505    2.6073    0.2159
    2.8858    2.6073   -1.7291
    4.1109    2.6073   -2.4371
    5.3232    2.6055   -1.7370
    6.5351    2.6108   -2.4381
    6.5348    2.6101   -3.8366
    5.3224    2.6097   -4.5365
    4.1096    2.6073   -3.8370
    8.1799    2.6171   -4.7871
   -5.9077   -4.8902    1.1151
   -6.7176   -5.6755    0.8446
   -5.7035   -0.3523    3.8561
   -5.8357    1.1442    2.9069
   -6.6072   -0.3474    2.3259
   -6.2879   -2.3223    1.5015
   -3.2937   -5.3400    1.4667
   -1.5819   -3.7175    2.0320
   -0.1650   -0.2090    2.1181
   -0.2657   -1.9743    1.9410
   -1.6124   -1.6911   -0.1167
   -1.5117    0.0742    0.0603
    0.8609   -1.8091   -0.2702
    0.1836   -0.7689   -1.5418
    1.7703    2.4601    1.4153
    1.0735    3.5602    0.2062
    2.0111    2.6073   -2.2341
    5.3191    2.5981   -0.6570
    7.4716    2.6088   -1.9004
    5.3249    2.6106   -5.6165
    3.1719    2.6035   -4.3727
@<BUDE>CONF  40
   -2.3584    0.0352   -2.9219
   -2.3691    0.3513   -1.5274
   -3.5256    0.8530   -0.9910
   -4.3373    1.7905   -1.6405
   -5.5085    2.2647   -1.0378
   -5.8730    1.7985    0.2251
   -5.0639    0.8609    0.8778
   -3.8924    0.3857    0.2766
   -3.0589   -0.5305    0.8620
   -2.7634   -0.3761    2.2526
   -2.0745    0.9688    2.4797
   -0.7680    1.0108    1.6885
    0.1448   -0.0930    2.1668
   -0.2109   -0.8273    3.0400
    1.3634   -0.2504    1.6077
    2.1925   -1.3094    2.0935
    3.5008   -1.3094    1.3395
    4.5660   -1.3094    1.9545
    3.5013   -1.3094    0.0095
    4.7264   -1.3094   -0.6985
    5.9387   -1.3112    0.0016
    7.1506   -1.3059   -0.6995
    7.1503   -1.3066   -2.0980
    5.9379   -1.3070   -2.7979
    4.7251   -1.3094   -2.0984
    8.7954   -1.2996   -3.0485
   -6.3418    3.2359   -1.7198
   -7.0088    4.0128   -2.2648
   -2.5587    0.9356   -3.4987
   -1.3833   -0.3623   -3.1955
   -3.1252   -0.7080   -3.1305
   -4.1090    2.1890   -2.6180
   -6.7761    2.1627    0.6923
   -5.3986    0.5383    1.8526
   -3.6870   -0.4111    2.8265
   -2.1044   -1.1793    2.5754
   -2.7268    1.7724    2.1442
   -1.8603    1.0931    3.5391
   -0.9794    0.8726    0.6303
   -0.2827    1.9727    1.8394
    1.6890   -2.2623    1.9448
    2.3858   -1.1622    3.1539
    2.6266   -1.3094   -0.4955
    5.9346   -1.3186    1.0816
    8.0871   -1.3079   -0.1618
    5.9404   -1.3061   -3.8779
    3.7874   -1.3132   -2.6341
@<BUDE>CONF  41
    1.0689    1.5050    2.5311
   -0.1643    0.9779    3.0272
   -1.1662    1.8624    3.3284
   -0.9494    3.0914    3.9625
   -2.0175    3.9519    4.2431
   -3.3144    3.5820    3.8873
   -3.5352    2.3537    3.2530
   -2.4683    1.4921    2.9717
   -2.6180    0.2784    2.3542
   -3.5041    0.2002    1.2346
   -3.5231   -1.2312    0.7002
   -2.1176   -1.6234    0.2471
   -1.6681   -0.6955   -0.8563
   -2.3905    0.1780   -1.2348
   -0.4495   -0.8529   -1.4154
    0.3796   -1.9119   -0.9296
    1.6879   -1.9119   -1.6836
    2.7531   -1.9119   -1.0686
    1.6884   -1.9119   -3.0136
    2.9135   -1.9119   -3.7216
    4.1258   -1.9137   -3.0215
    5.3377   -1.9084   -3.7226
    5.3374   -1.9091   -5.1211
    4.1250   -1.9095   -5.8210
    2.9122   -1.9119   -5.1215
    6.9825   -1.9021   -6.0716
   -1.7812    5.2226    4.9003
   -1.5928    6.2393    5.4261
    1.5047    2.1680    3.2755
    1.7561    0.6867    2.3265
    0.8824    2.0605    1.6144
    0.0301    3.4337    4.2622
   -4.1401    4.2439    4.1025
   -4.5602    2.1237    3.0024
   -4.5075    0.4841    1.5448
   -3.1614    0.8741    0.4522
   -3.8522   -1.9080    1.4859
   -4.2066   -1.2948   -0.1439
   -1.4304   -1.5467    1.0870
   -2.1272   -2.6468   -0.1220
   -0.1239   -2.8648   -1.0783
    0.5729   -1.7647    0.1308
    0.8137   -1.9119   -3.5186
    4.1217   -1.9211   -1.9415
    6.2742   -1.9104   -3.1849
    4.1275   -1.9086   -6.9010
    1.9745   -1.9157   -5.6572
@<BUDE>CONF  42
   -0.6369    6.2299    1.4780
   -0.9844    4.8790    1.1634
    0.0214    3.9498    1.1221
    1.2832    4.1985    0.5692
    2.2696    3.2052    0.5577
    1.9939    1.9515    1.1033
    0.7332    1.6989    1.6571
   -0.2543    2.6911    1.6694
   -1.5058    2.5072    2.1955
   -2.1765    1.2755    1.9161
   -2.3703    1.1331    0.4072
   -3.0869   -0.1829    0.1086
   -2.2475   -1.3360    0.6048
   -1.1975   -1.1267    1.1357
   -2.6835   -2.6040    0.4485
   -1.8544   -3.6630    0.9343
   -0.5461   -3.6630    0.1803
    0.5191   -3.6630    0.7953
   -0.5456   -3.6630   -1.1497
    0.6795   -3.6630   -1.8577
    1.8918   -3.6648   -1.1576
    3.1037   -3.6595   -1.8587
    3.1034   -3.6602   -3.2572
    1.8910   -3.6606   -3.9571
    0.6782   -3.6630   -3.2576
    4.7485   -3.6532   -4.2077
    3.5731    3.4740   -0.0177
    4.6162    3.6884   -0.4778
    0.0549    6.6096    0.7289
   -1.5360    6.8426    1.4859
   -0.1657    6.2637    2.4580
    1.5570    5.1475    0.1322
    2.7530    1.1834    1.0957
    0.5802    0.7102    2.0637
   -1.5785    0.4445    2.2843
   -3.1470    1.2707    2.4078
   -2.9688    1.9632    0.0378
   -1.4004    1.1370   -0.0857
   -4.0511   -0.1940    0.6124
   -3.2367   -0.2797   -0.9646
   -2.3579   -4.6159    0.7856
   -1.6611   -3.5158    1.9947
   -1.4203   -3.6630   -1.6547
    1.8877   -3.6722   -0.0776
    4.0402   -3.6615   -1.3210
    1.8935   -3.6597   -5.0371
   -0.2595   -3.6668   -3.7933
@<BUDE>CONF  43
   -1.4910   -0.7417    4.4248
   -1.6364    0.0494    3.2425
   -2.0003    1.3620    3.3884
   -2.9591    1.8021    4.3087
   -3.2869    3.1594    4.4090
   -2.6518    4.0863    3.5828
   -1.6925    3.6502    2.6612
   -1.3635    2.2933    2.5596
   -0.4349    1.8033    1.6795
   -0.4388    2.3173    0.3451
    0.6678    1.6415   -0.4633
    0.4141    0.1355   -0.5125
   -0.9127   -0.1289   -1.1833
   -1.5770    0.7836   -1.5760
   -1.3487   -1.3969   -1.3396
   -0.5196   -2.4559   -0.8538
    0.7887   -2.4559   -1.6078
    1.8539   -2.4559   -0.9928
    0.7892   -2.4559   -2.9378
    2.0143   -2.4559   -3.6458
    3.2266   -2.4577   -2.9457
    4.4385   -2.4524   -3.6468
    4.4382   -2.4531   -5.0453
    3.2258   -2.4535   -5.7452
    2.0130   -2.4559   -5.0457
    6.0833   -2.4461   -5.9958
   -4.2815    3.6039    5.3659
   -5.0771    3.9601    6.1313
   -2.4406   -0.7790    4.9544
   -1.1879   -1.7500    4.1507
   -0.7339   -0.2968    5.0672
   -3.4847    1.1340    4.9749
   -2.9028    5.1340    3.6581
   -1.2360    4.4146    2.0499
   -1.4015    2.1150   -0.1194
   -0.2654    3.3911    0.3689
    0.6740    2.0408   -1.4753
    1.6298    1.8313    0.0080
    1.2081   -0.3484   -1.0772
    0.3937   -0.2627    0.4997
   -1.0231   -3.4088   -1.0025
   -0.3263   -2.3087    0.2066
   -0.0855   -2.4559   -3.4428
    3.2225   -2.4651   -1.8657
    5.3750   -2.4544   -3.1091
    3.2283   -2.4526   -6.8252
    1.0753   -2.4597   -5.5814
@<BUDE>CONF  44
   -1.4910    0.7414    4.4248
   -1.6364   -0.0497    3.2425
   -2.0004   -1.3623    3.3884
   -2.9591   -1.8024    4.3087
   -3.2869   -3.1597    4.4090
   -2.6518   -4.0866    3.5828
   -1.6925   -3.6505    2.6612
   -1.3635   -2.2936    2.5596
   -0.4349   -1.8036    1.6795
   -0.4388   -2.3176    0.3451
    0.6678   -1.6418   -0.4633
    0.4141   -0.1358   -0.5125
   -0.9127    0.1286   -1.1833
   -1.5770   -0.7839   -1.5760
   -1.3487    1.3966   -1.3396
   -0.5196    2.4556   -0.8538
    0.7887    2.4556   -1.6078
    1.8539    2.4556   -0.9928
    0.7892    2.4556   -2.9378
    2.0143    2.4556   -3.6458
    3.2266    2.4538   -2.9457
    4.4385    2.4591   -3.6468
    4.4382    2.4584   -5.0453
    3.2258    2.4580   -5.7452
    2.0130    2.4556   -5.0457
    6.0833    2.4654   -5.9958
   -4.2815   -3.6042    5.3659
   -5.0771   -3.9604    6.1313
   -0.7153    0.3114    5.0549
   -1.2140    1.7568    4.1492
   -2.4334    0.7568    4.9682
   -3.4847   -1.1343    4.9749
   -2.9028   -5.1343    3.6581
   -1.2360   -4.4149    2.0499
   -0.2654   -3.3914    0.3689
   -1.4015   -2.1153   -0.1194
    1.6298   -1.8316    0.0080
    0.6740   -2.0411   -1.4753
    0.3937    0.2624    0.4997
    1.2081    0.3481   -1.0772
   -0.3263    2.3084    0.2066
   -1.0231    3.4085   -1.0025
   -0.0855    2.4556   -3.4428
    3.2225    2.4464   -1.8657
    5.3750    2.4571   -3.1091
    3.2283    2.4589   -6.8252
    1.0753    2.4518   -5.5814
@<BUDE>CONF  45
   -4.1570    1.2134   -2.5098
   -2.8738    0.5854   -2.4495
   -2.8310   -0.7756   -2.2992
   -3.6985   -1.6551   -2.9578
   -3.6031   -3.0379   -2.7613
   -2.6325   -3.5477   -1.8992
   -1.7631   -2.6715   -1.2388
   -1.8571   -1.2885   -1.4342
   -1.0375   -0.3795   -0.8186
   -0.7455   -0.5709    0.5681
   -2.0437   -0.5228    1.3724
   -1.7317   -0.7274    2.8541
   -0.8189    0.3764    3.3324
   -1.1746    1.1107    4.2056
    0.3997    0.5338    2.7733
    1.2288    1.5928    3.2591
    2.5371    1.5928    2.5051
    3.6023    1.5928    3.1201
    2.5376    1.5928    1.1751
    3.7627    1.5928    0.4671
    4.9750    1.5910    1.1672
    6.1869    1.5963    0.4661
    6.1866    1.5956   -0.9324
    4.9742    1.5952   -1.6323
    3.7614    1.5928   -0.9328
    7.8317    1.6026   -1.8829
   -4.5071   -3.9395   -3.4487
   -5.2299   -4.6613   -3.9983
   -4.6967    1.0239   -1.5843
   -4.0293    2.2857   -2.6429
   -4.7196    0.8078   -3.3481
   -4.4696   -1.3220   -3.6366
   -2.5567   -4.6141   -1.7458
   -1.0335   -3.1260   -0.5849
   -0.2682   -1.5385    0.7087
   -0.0778    0.2167    0.9109
   -2.5217    0.4446    1.2333
   -2.7120   -1.3106    1.0311
   -2.6566   -0.7059    3.4265
   -1.2410   -1.6885    2.9928
    1.4221    1.4456    4.3195
    0.7253    2.5457    3.1104
    1.6629    1.5928    0.6701
    4.9709    1.5836    2.2472
    7.1234    1.5943    1.0038
    4.9767    1.5961   -2.7123
    2.8237    1.5890   -1.4685
@<BUDE>CONF  46
    0.8485   -0.6530    3.8939
   -0.2675   -0.4824    3.0163
   -1.5024   -0.2896    3.5771
   -1.7253    0.5144    4.7013
   -3.0134    0.6709    5.2270
   -4.0892    0.0188    4.6248
   -3.8703   -0.7861    3.5005
   -2.5829   -0.9437    2.9735
   -2.3030   -1.7162    1.8773
   -3.1891   -1.6380    0.7577
   -3.2081   -0.2066    0.2233
   -1.8026    0.1856   -0.2298
   -1.3531   -0.7423   -1.3332
   -2.0755   -1.6158   -1.7117
   -0.1345   -0.5849   -1.8923
    0.6946    0.4741   -1.4065
    2.0029    0.4741   -2.1605
    3.0681    0.4741   -1.5455
    2.0034    0.4741   -3.4905
    3.2285    0.4741   -4.1985
    4.4408    0.4723   -3.4984
    5.6527    0.4776   -4.1995
    5.6524    0.4769   -5.5980
    4.4400    0.4765   -6.2979
    3.2272    0.4741   -5.5984
    7.2975    0.4839   -6.5485
   -3.2326    1.5062    6.3918
   -3.4086    2.1743    7.3236
    0.6900   -1.5327    4.5142
    1.7550   -0.7814    3.3061
    0.9481    0.2255    4.5279
   -0.9345    1.0444    5.2112
   -5.0838    0.1378    5.0283
   -4.7421   -1.2645    3.0792
   -2.8464   -2.3119   -0.0247
   -4.1925   -1.9219    1.0679
   -3.8916   -0.1430   -0.6208
   -3.5372    0.4702    1.0090
   -1.8122    1.2090   -0.5989
   -1.1154    0.1089    0.6101
    0.8879    0.3269   -0.3461
    0.1911    1.4270   -1.5552
    1.1287    0.4741   -3.9955
    4.4367    0.4649   -2.4184
    6.5892    0.4756   -3.6618
    4.4425    0.4774   -7.3779
    2.2895    0.4703   -6.1341
@<BUDE>CONF  47
   -1.2775   -0.7744    4.4115
   -1.0465   -0.0409    3.2060
   -0.2933    1.1008    3.2828
    0.8565    1.2183    4.0727
    1.5834    2.4142    4.1078
    1.1586    3.5033    3.3471
    0.0093    3.3898    2.5559
   -0.7188    2.1947    2.5197
   -1.8501    2.0198    1.7670
   -1.8540    2.5338    0.4326
   -0.7474    1.8580   -0.3758
   -1.0011    0.3520   -0.4250
   -2.3279    0.0876   -1.0958
   -2.9922    1.0001   -1.4885
   -2.7639   -1.1804   -1.2521
   -1.9348   -2.2394   -0.7663
   -0.6265   -2.2394   -1.5203
    0.4387   -2.2394   -0.9053
   -0.6260   -2.2394   -2.8503
    0.5991   -2.2394   -3.5583
    1.8114   -2.2412   -2.8582
    3.0233   -2.2359   -3.5593
    3.0230   -2.2366   -4.9578
    1.8106   -2.2370   -5.6577
    0.5978   -2.2394   -4.9582
    4.6681   -2.2296   -5.9083
    2.7729    2.5245    4.9296
    3.7246    2.6134    5.5869
   -1.8081   -0.1445    5.1225
   -1.8755   -1.6559    4.1900
   -0.3242   -1.0799    4.8377
    1.2355    0.4118    4.6829
    1.7175    4.4271    3.3724
   -0.2690    4.2666    1.9901
   -2.8167    2.3315   -0.0319
   -1.6806    3.6076    0.4564
   -0.7412    2.2573   -1.3878
    0.2146    2.0478    0.0955
   -0.2071   -0.1319   -0.9897
   -1.0215   -0.0462    0.5872
   -2.4383   -3.1923   -0.9150
   -1.7415   -2.0922    0.2941
   -1.5007   -2.2394   -3.3553
    1.8073   -2.2486   -1.7782
    3.9598   -2.2379   -3.0216
    1.8131   -2.2361   -6.7377
   -0.3399   -2.2432   -5.4939
@<BUDE>CONF  48
   -6.6151    0.0807    3.3982
   -5.2683    0.1074    2.9184
   -4.7567   -1.0416    2.3754
   -4.9896   -2.3175    2.9022
   -4.4371   -3.4540    2.2996
   -3.6446   -3.3155    1.1603
   -3.4093   -2.0412    0.6305
   -3.9610   -0.9038    1.2318
   -3.7688    0.3691    0.7630
   -2.4534    0.7362    0.3389
   -1.4864    0.6109    1.5154
   -0.0809    1.0031    1.0623
    0.3686    0.0752   -0.0411
   -0.3538   -0.7983   -0.4196
    1.5872    0.2326   -0.6002
    2.4163    1.2916   -0.1144
    3.7246    1.2916   -0.8684
    4.7898    1.2916   -0.2534
    3.7251    1.2916   -2.1984
    4.9502    1.2916   -2.9064
    6.1625    1.2898   -2.2063
    7.3744    1.2951   -2.9074
    7.3741    1.2944   -4.3059
    6.1617    1.2940   -5.0058
    4.9489    1.2916   -4.3063
    9.0192    1.3014   -5.2564
   -4.6851   -4.7707    2.8539
   -4.8831   -5.8243    3.2969
   -6.7020   -0.6585    4.1918
   -6.8811    1.0621    3.7851
   -7.2850   -0.1818    2.5821
   -5.5936   -2.4895    3.7808
   -3.2171   -4.1906    0.6935
   -2.7883   -1.9987   -0.2520
   -2.1333    0.0762   -0.4646
   -2.4599    1.7645   -0.0164
   -1.8050    1.2710    2.3194
   -1.4784   -0.4172    1.8712
   -0.0905    2.0265    0.6932
    0.6063    0.9264    1.9022
    2.6096    1.1444    0.9460
    1.9128    2.2445   -0.2631
    2.8504    1.2916   -2.7034
    6.1584    1.2824   -1.1263
    8.3109    1.2931   -2.3697
    6.1642    1.2949   -6.0858
    4.0112    1.2878   -4.8420
@<BUDE>CONF  49
    0.2873   -4.8615   -0.8062
   -0.5869   -4.5626    0.2852
   -0.0297   -4.0893    1.4437
    1.1652   -4.5786    1.9846
    1.6829   -4.0517    3.1738
    1.0013   -3.0265    3.8294
   -0.1939   -2.5346    3.2917
   -0.7130   -3.0604    2.1026
   -1.8761   -2.6232    1.5257
   -2.1136   -1.2137    1.4797
   -1.0070   -0.5379    0.6713
   -1.2607    0.9681    0.6221
   -2.5875    1.2325   -0.0487
   -3.2518    0.3200   -0.4414
   -3.0235    2.5005   -0.2050
   -2.1944    3.5595    0.2808
   -0.8861    3.5595   -0.4732
    0.1791    3.5595    0.1418
   -0.8856    3.5595   -1.8032
    0.3395    3.5595   -2.5112
    1.5518    3.5577   -1.8111
    2.7637    3.5630   -2.5122
    2.7634    3.5623   -3.9107
    1.5510    3.5619   -4.6106
    0.3382    3.5595   -3.9111
    4.4085    3.5693   -4.8612
    2.9215   -4.5662    3.7248
    3.9123   -4.9774    4.1662
    0.9904   -5.6354   -0.5054
   -0.2982   -5.2120   -1.6536
    0.8337   -3.9641   -1.0886
    1.7382   -5.3700    1.5244
    1.3985   -2.6182    4.7469
   -0.6749   -1.7413    3.8446
   -3.0750   -1.0225    1.0078
   -2.1192   -0.8130    2.4912
   -0.0450   -0.7277    1.1426
   -1.0008   -0.9372   -0.3407
   -1.2811    1.3663    1.6343
   -0.4667    1.4520    0.0574
   -2.0011    3.4123    1.3412
   -2.6979    4.5124    0.1321
   -1.7603    3.5595   -2.3082
    1.5477    3.5503   -0.7311
    3.7002    3.5610   -1.9745
    1.5535    3.5628   -5.6906
   -0.5995    3.5557   -4.4468
@<BUDE>CONF  50
   -1.2554   -5.9433    1.4843
   -1.1470   -4.5179    1.4484
    0.0976   -3.9723    1.2758
    1.2521   -4.4658    1.8949
    2.4965   -3.8624    1.6771
    2.5892   -2.7557    0.8333
    1.4370   -2.2592    0.2124
    0.1919   -2.8615    0.4290
   -0.9712   -2.4243   -0.1479
   -1.2086   -1.0148   -0.1939
   -1.2545   -0.4603    1.2292
   -1.5082    1.0457    1.1800
   -2.8350    1.3101    0.5092
   -3.4993    0.3976    0.1165
   -3.2710    2.5781    0.3529
   -2.4419    3.6371    0.8387
   -1.1336    3.6371    0.0847
   -0.0684    3.6371    0.6997
   -1.1331    3.6371   -1.2453
    0.0920    3.6371   -1.9533
    1.3043    3.6353   -1.2532
    2.5162    3.6406   -1.9543
    2.5159    3.6399   -3.3528
    1.3035    3.6395   -4.0527
    0.0907    3.6371   -3.3532
    4.1610    3.6469   -4.3033
    3.6857   -4.3821    2.3236
    4.6375   -4.7974    2.8406
   -0.6701   -6.3300    2.3159
   -2.2987   -6.2240    1.6128
   -0.8798   -6.3586    0.5515
    1.2451   -5.3183    2.5579
    3.5479   -2.2883    0.6636
    1.5728   -1.4010   -0.4290
   -0.4068   -0.5292   -0.7460
   -2.1585   -0.8224   -0.6882
   -2.0565   -0.9446    1.7822
   -0.3048   -0.6514    1.7244
   -1.5286    1.4439    2.1922
   -0.7142    1.5296    0.6153
   -2.2486    3.4899    1.8991
   -2.9454    4.5900    0.6900
   -2.0078    3.6371   -1.7503
    1.3002    3.6279   -0.1732
    3.4527    3.6386   -1.4166
    1.3060    3.6404   -5.1327
   -0.8470    3.6333   -3.8889
