@<TRIPOS>MOLECULE
ZINC61332986
   54    57     0     0     0
SMALL
USER_CHARGES

@<TRIPOS>ATOM
      1 C1         -1.5615    0.5302    1.6120 C.3       1 <0>        -0.0651
      2 C2         -1.3408   -0.9602    1.5792 C.2       1 <0>         0.1077
      3 C3         -1.3404   -1.7641    0.4340 C.2       1 <0>        -0.2503
      4 C4         -1.1069   -3.0397    0.8205 C.2       1 <0>         0.1023
      5 N1         -0.9644   -3.0426    2.1652 N.pl3     1 <0>        -0.3272
      6 N2         -1.1107   -1.7245    2.6164 N.2       1 <0>        -0.2926
      7 C5         -0.7110   -4.1653    2.9656 C.ar      1 <0>         0.1517
      8 C6          0.2118   -5.1181    2.5553 C.ar      1 <0>        -0.1269
      9 C7          0.4593   -6.2231    3.3461 C.ar      1 <0>        -0.1004
     10 C8         -0.2109   -6.3811    4.5452 C.ar      1 <0>        -0.1187
     11 C9         -1.1309   -5.4341    4.9563 C.ar      1 <0>        -0.1011
     12 C10        -1.3781   -4.3237    4.1728 C.ar      1 <0>        -0.1080
     13 C11        -1.0216   -4.2414   -0.0849 C.3       1 <0>        -0.0982
     14 C12        -1.5617   -1.2927   -0.9801 C.3       1 <0>         0.1968
     15 N3         -0.2752   -0.9347   -1.5826 N.am      1 <0>        -0.6132
     16 C13         0.5035   -1.9459   -2.3018 C.3       1 <0>         0.0722
     17 C14         0.1919    0.3250   -1.4752 C.2       1 <0>         0.5166
     18 O1         -0.4528    1.1621   -0.8798 O.2       1 <0>        -0.5126
     19 C15         1.5153    0.6932   -2.0949 C.3       1 <0>        -0.0487
     20 C16         1.8047    2.1489   -1.8334 C.2       1 <0>         0.0188
     21 C17         2.9472    2.6858   -1.2342 C.2       1 <0>        -0.0082
     22 N4          2.7652    3.9872   -1.2143 N.2       1 <0>        -0.2883
     23 N5          1.6247    4.2526   -1.7459 N.pl3     1 <0>        -0.1034
     24 N6          1.0370    3.1742   -2.1272 N.2       1 <0>        -0.2534
     25 C18         1.0962    5.5428   -1.8943 C.ar      1 <0>         0.1428
     26 C19        -0.1510    5.7206   -2.4780 C.ar      1 <0>        -0.1016
     27 C20        -0.6692    6.9928   -2.6224 C.ar      1 <0>        -0.1024
     28 C21         0.0530    8.0886   -2.1868 C.ar      1 <0>        -0.1128
     29 C22         1.2954    7.9146   -1.6052 C.ar      1 <0>        -0.1028
     30 C23         1.8164    6.6445   -1.4528 C.ar      1 <0>        -0.1050
     31 H1         -0.6046    1.0416    1.5084 H         1 <0>         0.0801
     32 H2         -2.2182    0.8183    0.7911 H         1 <0>         0.0841
     33 H3         -2.0215    0.8086    2.5601 H         1 <0>         0.0646
     34 H4          0.7352   -4.9954    1.6187 H         1 <0>         0.1288
     35 H5          1.1767   -6.9648    3.0273 H         1 <0>         0.1335
     36 H6         -0.0157   -7.2460    5.1618 H         1 <0>         0.1305
     37 H7         -1.6533   -5.5605    5.8931 H         1 <0>         0.1330
     38 H8         -2.0932   -3.5820    4.4967 H         1 <0>         0.1315
     39 H9          0.0214   -4.4330   -0.3371 H         1 <0>         0.0819
     40 H10        -1.4378   -5.1105    0.4245 H         1 <0>         0.0765
     41 H11        -1.5867   -4.0498   -0.9971 H         1 <0>         0.0881
     42 H12        -2.0254   -2.0903   -1.5606 H         1 <0>         0.0827
     43 H13        -2.2154   -0.4205   -0.9742 H         1 <0>         0.0938
     44 H14         0.2174   -1.9445   -3.3536 H         1 <0>         0.0608
     45 H15         1.5655   -1.7170   -2.2138 H         1 <0>         0.0719
     46 H16         0.3069   -2.9286   -1.8731 H         1 <0>         0.0716
     47 H17         2.3042    0.0816   -1.6572 H         1 <0>         0.1150
     48 H18         1.4743    0.5184   -3.1700 H         1 <0>         0.1125
     49 H19         3.8039    2.1428   -0.8631 H         1 <0>         0.2017
     50 H20        -0.7152    4.8652   -2.8190 H         1 <0>         0.1421
     51 H21        -1.6392    7.1318   -3.0763 H         1 <0>         0.1367
     52 H22        -0.3539    9.0824   -2.3015 H         1 <0>         0.1325
     53 H23         1.8571    8.7724   -1.2659 H         1 <0>         0.1367
     54 H24         2.7848    6.5089   -0.9943 H         1 <0>         0.1413
@<TRIPOS>BOND
     1    1    2 1
     2    1   31 1
     3    1   32 1
     4    1   33 1
     5    2    6 2
     6    2    3 1
     7    3    4 2
     8    3   14 1
     9    4    5 1
    10    4   13 1
    11    5    6 1
    12    5    7 1
    13    7   12 ar
    14    7    8 ar
    15    8    9 ar
    16    8   34 1
    17    9   10 ar
    18    9   35 1
    19   10   11 ar
    20   10   36 1
    21   11   12 ar
    22   11   37 1
    23   12   38 1
    24   13   39 1
    25   13   40 1
    26   13   41 1
    27   14   15 1
    28   14   42 1
    29   14   43 1
    30   15   16 1
    31   15   17 am
    32   16   44 1
    33   16   45 1
    34   16   46 1
    35   17   18 2
    36   17   19 1
    37   19   20 1
    38   19   47 1
    39   19   48 1
    40   20   24 2
    41   20   21 1
    42   21   22 2
    43   21   49 1
    44   22   23 1
    45   23   24 1
    46   23   25 1
    47   25   30 ar
    48   25   26 ar
    49   26   27 ar
    50   26   50 1
    51   27   28 ar
    52   27   51 1
    53   28   29 ar
    54   28   52 1
    55   29   30 ar
    56   29   53 1
    57   30   54 1
@<BUDE>CONF  1
    0.3151   -4.8717   -0.6102
    1.1373   -3.8448    0.1309
    1.5154   -2.4683   -0.2596
    2.3011   -2.0326    0.7346
    2.4446   -2.9732    1.6333
    1.7308   -4.0611    1.2899
    3.2686   -2.8349    2.6920
    4.0505   -3.9135    3.1221
    4.8653   -3.7811    4.2528
    4.9264   -2.5619    4.9325
    4.1575   -1.4763    4.4966
    3.3407   -1.6108    3.3676
    3.0333   -0.7245    0.9155
    1.1214   -1.7795   -1.5443
    0.7272   -0.3932   -1.2550
    1.4972    0.7241   -1.8204
   -0.3268   -0.1497   -0.4814
   -0.9711   -1.0846   -0.0084
   -0.7330    1.2738   -0.1831
   -1.9729    1.6185   -0.9730
   -2.7905    0.7905   -1.8875
   -3.7805    1.5836   -2.2529
   -3.6449    2.7957   -1.6804
   -2.5480    2.8046   -0.9031
   -4.4402    3.8661   -1.8828
   -5.5660    3.7662   -2.7091
   -6.3905    4.8794   -2.9113
   -6.0868    6.0969   -2.2948
   -4.9636    6.2013   -1.4655
   -4.1423    5.0858   -1.2635
   -0.0082   -4.4576   -1.5629
   -0.5562   -5.1362   -0.0147
    0.9182   -5.7600   -0.7862
    4.0216   -4.8477    2.5810
    5.4591   -4.6165    4.5934
    5.5431   -2.4666    5.8140
    4.1938   -0.5369    5.0283
    2.7615   -0.7687    3.0186
    2.8440   -0.0821    0.0582
    4.1012   -0.9158    0.9973
    2.6814   -0.2350    1.8211
    0.2845   -2.3068   -1.9973
    1.9656   -1.7802   -2.2305
    1.9093    1.3252   -1.0126
    2.3075    0.3326   -2.4318
    0.8435    1.3401   -2.4345
    0.0747    1.9469   -0.4628
   -0.9395    1.3761    0.8801
   -2.6911   -0.2261   -2.2382
   -5.7971    2.8280   -3.1915
   -7.2601    4.8058   -3.5476
   -6.7241    6.9545   -2.4518
   -4.7322    7.1396   -0.9834
   -3.2739    5.1651   -0.6263
@<BUDE>CONF  2
    3.0562    2.0166    0.9561
    2.2855    0.9778    0.1771
    2.3429   -0.4994    0.2480
    1.5010   -0.9221   -0.7050
    0.9822    0.1053   -1.3282
    1.4317    1.2542   -0.7908
    0.1770   -0.0374   -2.4007
    0.2938    0.8336   -3.4904
   -0.5784    0.7144   -4.5790
   -1.5434   -0.2959   -4.5952
   -1.6535   -1.1785   -3.5142
   -0.7827   -1.0564   -2.4248
    1.1421   -2.3164   -1.1599
    3.2265   -1.3012    1.1733
    2.4565   -2.4185    1.7386
    2.8508   -3.8049    1.4494
    1.4025   -2.1750    2.5122
    0.7582   -3.1099    2.9852
    0.9963   -0.7515    2.8105
   -0.2436   -0.4068    2.0206
   -1.0612   -1.2348    1.1061
   -2.0511   -0.4417    0.7407
   -1.9156    0.7704    1.3132
   -0.8186    0.7793    2.0905
   -2.7109    1.8408    1.1108
   -3.8367    1.7409    0.2845
   -4.6612    2.8541    0.0823
   -4.3574    4.0716    0.6988
   -3.2343    4.1760    1.5281
   -2.4129    3.0605    1.7301
    3.7316    1.5212    1.6503
    2.3607    2.6431    1.5105
    3.6308    2.6327    0.2676
    1.0564    1.5983   -3.4879
   -0.4980    1.3941   -5.4145
   -2.2258   -0.3760   -5.4286
   -2.4071   -1.9521   -3.5193
   -0.8538   -1.7482   -1.5985
    1.6976   -3.0434   -0.5714
    1.3958   -2.4305   -2.2117
    0.0749   -2.4780   -1.0239
    3.5829   -0.6629    1.9790
    4.0757   -1.6918    0.6166
    2.0370   -4.3131    0.9363
    3.7356   -3.8051    0.8165
    3.0707   -4.3207    2.3818
    1.8040   -0.0784    2.5308
    0.7898   -0.6492    3.8737
   -0.9618   -2.2514    0.7554
   -4.0678    0.8027   -0.1979
   -5.5308    2.7805   -0.5540
   -4.9947    4.9292    0.5418
   -3.0028    5.1143    2.0102
   -1.5446    3.1398    2.3673
@<BUDE>CONF  3
    0.0722   -4.2448    0.0446
    0.8944   -3.2179    0.7857
    1.2725   -1.8414    0.3952
    2.0582   -1.4057    1.3894
    2.2017   -2.3463    2.2881
    1.4879   -3.4342    1.9447
    3.0257   -2.2080    3.3468
    3.8076   -3.2866    3.7769
    4.6225   -3.1542    4.9076
    4.6835   -1.9350    5.5873
    3.9146   -0.8494    5.1514
    3.0978   -0.9839    4.0224
    2.7904   -0.0976    1.5703
    0.8785   -1.1526   -0.8895
    0.4843    0.2337   -0.6002
    1.2543    1.3510   -1.1656
   -0.5697    0.4772    0.1734
   -1.2140   -0.4577    0.6464
   -0.9759    1.9007    0.4717
   -2.2158    2.2454   -0.3182
   -3.5224    2.7777    0.1286
   -4.2105    2.9390   -0.9863
   -3.4787    2.5499   -2.0486
   -2.2695    2.1350   -1.6325
   -3.8913    2.5192   -3.3323
   -5.1699    2.9738   -3.6768
   -5.5905    2.9440   -5.0118
   -4.7372    2.4520   -6.0039
   -3.4567    1.9987   -5.6651
   -3.0381    2.0317   -4.3295
   -0.2511   -3.8307   -0.9081
   -0.7991   -4.5093    0.6401
    0.6753   -5.1331   -0.1314
    3.7787   -4.2208    3.2358
    5.2162   -3.9896    5.2482
    5.3003   -1.8397    6.4688
    3.9509    0.0900    5.6831
    2.5186   -0.1418    3.6734
    2.6011    0.5448    0.7130
    3.8583   -0.2889    1.6521
    2.4385    0.3919    2.4759
    0.0416   -1.6799   -1.3425
    1.7227   -1.1533   -1.5757
    1.6664    1.9521   -0.3578
    2.0646    0.9595   -1.7770
    0.6006    1.9670   -1.7797
   -0.1682    2.5738    0.1920
   -1.1824    2.0030    1.5349
   -3.9200    3.0136    1.1046
   -5.8323    3.3471   -2.9098
   -6.5759    3.2945   -5.2811
   -5.0633    2.4300   -7.0332
   -2.7943    1.6249   -6.4318
   -2.0517    1.6799   -4.0658
@<BUDE>CONF  4
    1.0106    2.6312   -0.8375
    0.2399    1.5924   -1.6165
    0.2973    0.1152   -1.5456
   -0.5446   -0.3075   -2.4986
   -1.0634    0.7199   -3.1218
   -0.6139    1.8688   -2.5844
   -1.8686    0.5772   -4.1943
   -1.7518    1.4482   -5.2840
   -2.6240    1.3290   -6.3726
   -3.5890    0.3187   -6.3888
   -3.6991   -0.5639   -5.3078
   -2.8283   -0.4418   -4.2184
   -0.9035   -1.7018   -2.9535
    1.1809   -0.6866   -0.6203
    0.4109   -1.8039   -0.0550
    0.8052   -3.1903   -0.3442
   -0.6431   -1.5604    0.7186
   -1.2874   -2.4953    1.1916
   -1.0493   -0.1369    1.0169
   -0.6671    0.2077    2.4365
   -1.5000    0.6620    3.5723
   -0.6549    0.7588    4.5818
    0.5903    0.4338    4.1828
    0.5708    0.0973    2.8813
    1.7073    0.4839    4.9371
    1.6345    0.8440    6.2881
    2.7969    0.8892    7.0671
    4.0353    0.5829    6.4952
    4.1132    0.2197    5.1454
    2.9488    0.1733    4.3695
    1.6860    2.1358   -0.1433
    0.3151    3.2577   -0.2831
    1.5852    3.2473   -1.5260
   -0.9892    2.2129   -5.2815
   -2.5436    2.0087   -7.2081
   -4.2714    0.2386   -7.2222
   -4.4527   -1.3375   -5.3129
   -2.8994   -1.1336   -3.3921
   -0.3480   -2.4288   -2.3650
   -0.6498   -1.8159   -4.0053
   -1.9707   -1.8634   -2.8175
    1.5373   -0.0483    0.1854
    2.0301   -1.0772   -1.1770
   -0.0086   -3.6985   -0.8573
    1.6900   -3.1905   -0.9771
    1.0251   -3.7061    0.5882
   -2.1255   -0.0345    0.8953
   -0.5405    0.5362    0.3301
   -2.5520    0.8889    3.6620
    0.6791    1.0878    6.7286
    2.7443    1.1659    8.1097
    4.9308    0.6181    7.0978
    5.0686   -0.0238    4.7047
    3.0072   -0.1041    3.3274
