@<TRIPOS>MOLECULE
ZINC61352350
   41    41     0     0     0
SMALL
USER_CHARGES

@<TRIPOS>ATOM
      1 C1         -4.3881    1.7948    3.1460 C.3       1 <0>        -0.1654
      2 C2         -4.3673    0.2649    3.1376 C.3       1 <0>         0.1681
      3 C3         -3.6273   -0.2419    4.3771 C.3       1 <0>        -0.1654
      4 C4         -5.8027   -0.2646    3.1485 C.3       1 <0>        -0.1575
      5 N1         -3.6816   -0.2075    1.9323 N.am      1 <0>        -0.7174
      6 C5         -2.3979    0.1367    1.7086 C.2       1 <0>         0.5123
      7 O1         -1.8104    0.8377    2.5051 O.2       1 <0>        -0.5302
      8 C6         -1.6925   -0.3493    0.4687 C.3       1 <0>         0.1008
      9 N2         -0.3181    0.1578    0.4583 N.am      1 <0>        -0.7137
     10 C7          0.5064   -0.1510   -0.5621 C.2       1 <0>         0.5216
     11 O2          0.1106   -0.8487   -1.4717 O.2       1 <0>        -0.5149
     12 C8          1.9202    0.3706   -0.5728 C.3       1 <0>         0.0504
     13 O3          2.5891   -0.0902   -1.7485 O.3       1 <0>        -0.3193
     14 C9          3.8714    0.2902   -1.9116 C.2       1 <0>         0.5173
     15 O4          4.4070    0.9939   -1.0784 O.2       1 <0>        -0.4724
     16 C10         4.6246   -0.1476   -3.1012 C.ar      1 <0>        -0.1184
     17 C11         4.0092   -0.9527   -4.0645 C.ar      1 <0>        -0.0438
     18 C12         4.7179   -1.3595   -5.1754 C.ar      1 <0>         0.0822
     19 C13         6.0417   -0.9720   -5.3396 C.ar      1 <0>         0.1048
     20 C14         6.6591   -0.1743   -4.3888 C.ar      1 <0>         0.0533
     21 C15         5.9561    0.2458   -3.2732 C.ar      1 <0>         0.1585
     22 F1          6.5559    1.0282   -2.3496 F         1 <0>        -0.0849
     23 F2          7.9470    0.1987   -4.5545 F         1 <0>        -0.0975
     24 F3          6.7304   -1.3745   -6.4300 F         1 <0>        -0.0955
     25 F4          4.1233   -2.1375   -6.1063 F         1 <0>        -0.1036
     26 H1         -3.3655    2.1721    3.1383 H         1 <0>         0.0780
     27 H2         -4.9153    2.1558    2.2630 H         1 <0>         0.0552
     28 H3         -4.8983    2.1463    4.0428 H         1 <0>         0.0657
     29 H4         -4.1375    0.1096    5.2739 H         1 <0>         0.0657
     30 H5         -3.6126   -1.3318    4.3712 H         1 <0>         0.0552
     31 H6         -2.6047    0.1354    4.3694 H         1 <0>         0.0780
     32 H7         -6.3299    0.0964    2.2654 H         1 <0>         0.0637
     33 H8         -5.7879   -1.3545    3.1425 H         1 <0>         0.0637
     34 H9         -6.3129    0.0869    4.0453 H         1 <0>         0.0763
     35 H10        -4.1515   -0.7681    1.2952 H         1 <0>         0.4037
     36 H11        -1.6778   -1.4391    0.4627 H         1 <0>         0.1033
     37 H12        -2.2197    0.0118   -0.4144 H         1 <0>         0.1034
     38 H13        -0.0015    0.7158    1.1858 H         1 <0>         0.4159
     39 H14         1.9054    1.4605   -0.5668 H         1 <0>         0.1087
     40 H15         2.4474    0.0095    0.3103 H         1 <0>         0.1087
     41 H16         2.9802   -1.2558   -3.9386 H         1 <0>         0.1854
@<TRIPOS>BOND
     1    1    2 1
     2    1   26 1
     3    1   27 1
     4    1   28 1
     5    2    3 1
     6    2    4 1
     7    2    5 1
     8    3   29 1
     9    3   30 1
    10    3   31 1
    11    4   32 1
    12    4   33 1
    13    4   34 1
    14    5    6 am
    15    5   35 1
    16    6    7 2
    17    6    8 1
    18    8    9 1
    19    8   36 1
    20    8   37 1
    21    9   10 am
    22    9   38 1
    23   10   11 2
    24   10   12 1
    25   12   13 1
    26   12   39 1
    27   12   40 1
    28   13   14 1
    29   14   15 2
    30   14   16 1
    31   16   21 ar
    32   16   17 ar
    33   17   18 ar
    34   17   41 1
    35   18   19 ar
    36   18   25 1
    37   19   20 ar
    38   19   24 1
    39   20   21 ar
    40   20   23 1
    41   21   22 1
@<BUDE>CONF  1
   -2.3310   -2.2294    0.1195
   -1.1382   -2.2294   -0.8322
   -1.1878   -0.9832   -1.7114
   -1.1878   -3.4756   -1.7114
    0.1087   -2.2294   -0.0536
    1.2832   -2.2294   -0.6774
    1.3262   -2.2294   -1.9066
    2.5630   -2.2294    0.1238
    2.6961   -0.9487    0.8329
    2.0075   -0.7330    1.9502
    1.2598   -1.6054    2.3893
    2.1442    0.5825    2.6786
    1.6786    1.6421    1.8388
    0.3791    1.6356    1.4730
   -0.3583    0.7434    1.8585
   -0.1500    2.7109    0.6046
   -1.4994    2.6929    0.2323
   -2.0205    3.7002   -0.5885
   -1.1960    4.7321   -1.0423
    0.1538    4.7525   -0.6715
    0.6756    3.7456    0.1492
    1.9808    3.7901    0.4912
    0.9555    5.7475   -1.1073
   -1.6966    5.7045   -1.8339
   -3.3243    3.6666   -0.9373
   -2.3013   -1.3342    0.7372
   -3.2538   -2.2428   -0.4566
   -2.2868   -3.1111    0.7553
   -0.3438   -0.9908   -2.3980
   -1.1382   -0.0956   -1.0844
   -2.1167   -0.9766   -2.2779
   -1.1649   -4.3633   -1.0828
   -2.1044   -3.4688   -2.2975
   -0.3291   -3.4815   -2.3797
    0.0734   -2.2294    0.9558
    2.5385   -3.0433    0.8452
    3.4096   -2.3633   -0.5463
    3.3104   -0.2331    0.4715
    1.5517    0.5545    3.5907
    3.1895    0.7504    2.9297
   -2.1583    1.9065    0.5695
@<BUDE>CONF  2
   -2.3310    2.2294    0.1195
   -1.1382    2.2294   -0.8322
   -1.1878    3.4756   -1.7114
   -1.1878    0.9832   -1.7114
    0.1087    2.2294   -0.0536
    1.2832    2.2294   -0.6774
    1.3262    2.2294   -1.9066
    2.5630    2.2294    0.1238
    2.6961    0.9487    0.8329
    2.0075    0.7330    1.9502
    1.2598    1.6054    2.3893
    2.1442   -0.5825    2.6786
    1.6786   -1.6421    1.8388
    0.3791   -1.6356    1.4730
   -0.3583   -0.7434    1.8585
   -0.1500   -2.7109    0.6046
   -1.4994   -2.6929    0.2323
   -2.0205   -3.7002   -0.5885
   -1.1960   -4.7321   -1.0423
    0.1538   -4.7525   -0.6715
    0.6756   -3.7456    0.1492
    1.9808   -3.7901    0.4912
    0.9555   -5.7475   -1.1073
   -1.6966   -5.7045   -1.8339
   -3.3243   -3.6666   -0.9373
   -2.3013    3.1246    0.7372
   -3.2538    2.2160   -0.4566
   -2.2868    1.3477    0.7553
   -0.3438    3.4680   -2.3980
   -1.1382    4.3632   -1.0844
   -2.1167    3.4822   -2.2779
   -1.1649    0.0955   -1.0828
   -2.1044    0.9900   -2.2975
   -0.3291    0.9773   -2.3797
    0.0734    2.2294    0.9558
    3.4096    2.3633   -0.5463
    2.5385    3.0433    0.8452
    3.3104    0.2331    0.4715
    3.1895   -0.7504    2.9297
    1.5517   -0.5545    3.5907
   -2.1583   -1.9065    0.5695
@<BUDE>CONF  3
   -3.0444   -2.3148    0.4074
   -1.8516   -2.3148   -0.5443
   -1.9012   -1.0686   -1.4235
   -1.9012   -3.5610   -1.4235
   -0.6047   -2.3148    0.2343
    0.5698   -2.3148   -0.3895
    0.6128   -2.3148   -1.6187
    1.8496   -2.3148    0.4117
    1.9827   -1.0341    1.1208
    1.2941   -0.8184    2.2381
    0.5464   -1.6908    2.6772
    1.4308    0.4971    2.9665
    0.9652    1.5567    2.1267
    1.6239    1.7844    0.9706
    2.5849    1.0952    0.6706
    1.1798    2.8698    0.0679
    1.8713    3.0959   -1.1282
    1.4681    4.1173   -1.9965
    0.3709    4.9194   -1.6748
   -0.3224    4.6955   -0.4794
    0.0802    3.6743    0.3894
   -0.6066    3.4806    1.5354
   -1.3837    5.4677   -0.1632
   -0.0195    5.9049   -2.5108
    2.1470    4.3208   -3.1456
   -3.0147   -1.4196    1.0251
   -3.9672   -2.3282   -0.1687
   -3.0002   -3.1965    1.0432
   -1.0572   -1.0762   -2.1101
   -1.8516   -0.1810   -0.7965
   -2.8301   -1.0620   -1.9900
   -1.8783   -4.4487   -0.7949
   -2.8178   -3.5542   -2.0096
   -1.0425   -3.5669   -2.0918
   -0.6400   -2.3148    1.2437
    1.8251   -3.1287    1.1331
    2.6962   -2.4487   -0.2584
    2.5970   -0.3185    0.7594
    0.8383    0.4691    3.8786
    2.4761    0.6650    3.2176
    2.7229    2.4901   -1.4006
@<BUDE>CONF  4
   -3.0444    2.3148    0.4074
   -1.8516    2.3148   -0.5443
   -1.9012    3.5610   -1.4235
   -1.9012    1.0686   -1.4235
   -0.6047    2.3148    0.2343
    0.5698    2.3148   -0.3895
    0.6128    2.3148   -1.6187
    1.8496    2.3148    0.4117
    1.9827    1.0341    1.1208
    1.2941    0.8184    2.2381
    0.5464    1.6908    2.6772
    1.4308   -0.4971    2.9665
    0.9652   -1.5567    2.1267
    1.6239   -1.7844    0.9706
    2.5849   -1.0952    0.6706
    1.1798   -2.8698    0.0679
    1.8713   -3.0959   -1.1282
    1.4681   -4.1173   -1.9965
    0.3709   -4.9194   -1.6748
   -0.3224   -4.6955   -0.4794
    0.0802   -3.6743    0.3894
   -0.6066   -3.4806    1.5354
   -1.3837   -5.4677   -0.1632
   -0.0195   -5.9049   -2.5108
    2.1470   -4.3208   -3.1456
   -3.0147    3.2100    1.0251
   -3.9672    2.3014   -0.1687
   -3.0002    1.4331    1.0432
   -1.0572    3.5534   -2.1101
   -1.8516    4.4486   -0.7965
   -2.8301    3.5676   -1.9900
   -1.8783    0.1809   -0.7949
   -2.8178    1.0754   -2.0096
   -1.0425    1.0627   -2.0918
   -0.6400    2.3148    1.2437
    2.6962    2.4487   -0.2584
    1.8251    3.1287    1.1331
    2.5970    0.3185    0.7594
    2.4761   -0.6650    3.2176
    0.8383   -0.4691    3.8786
    2.7229   -2.4901   -1.4006
@<BUDE>CONF  5
   -2.2532    2.1687   -0.0048
   -1.0604    2.1687   -0.9565
   -1.1100    3.4149   -1.8357
   -1.1100    0.9225   -1.8357
    0.1865    2.1687   -0.1779
    1.3610    2.1687   -0.8017
    1.4040    2.1687   -2.0309
    2.6408    2.1687   -0.0005
    2.7739    0.8880    0.7086
    3.1932   -0.1925    0.0562
    3.4693   -0.1194   -1.1402
    3.3299   -1.5080    0.7847
    2.0457   -1.9286    1.2524
    1.0924   -2.1924    0.3336
    1.3402   -2.0692   -0.8546
   -0.2526   -2.6308    0.7684
   -1.2325   -2.9012   -0.1940
   -2.5113   -3.3171    0.1954
   -2.8187   -3.4654    1.5497
   -1.8407   -3.1956    2.5143
   -0.5617   -2.7797    2.1256
    0.3620   -2.5264    3.0770
   -2.1323   -3.3372    3.8249
   -4.0513   -3.8663    1.9274
   -3.4436   -3.5734   -0.7468
   -2.2235    3.0639    0.6129
   -3.1760    2.1553   -0.5809
   -2.2090    1.2870    0.6310
   -0.2660    3.4073   -2.5223
   -1.0604    4.3025   -1.2087
   -2.0389    3.4215   -2.4022
   -1.0871    0.0348   -1.2071
   -2.0266    0.9293   -2.4218
   -0.2513    0.9166   -2.5040
    0.1512    2.1687    0.8315
    3.4874    2.3026   -0.6706
    2.6163    2.9826    0.7209
    2.5469    0.8292    1.6910
    3.7329   -2.2572    0.1064
    4.0025   -1.3850    1.6310
   -1.0207   -2.7945   -1.2477
@<BUDE>CONF  6
   -2.8209   -2.6905   -0.1905
   -1.6281   -2.6905   -1.1422
   -1.6777   -1.4443   -2.0214
   -1.6777   -3.9367   -2.0214
   -0.3812   -2.6905   -0.3636
    0.7933   -2.6905   -0.9874
    0.8363   -2.6905   -2.2166
    2.0731   -2.6905   -0.1862
    2.2062   -1.4098    0.5229
    1.5176   -1.1941    1.6402
    0.7699   -2.0665    2.0793
    1.6543    0.1214    2.3686
    1.1887    1.1810    1.5288
    1.2339    2.4399    2.0139
    1.6628    2.6452    3.1375
    0.7632    3.5702    1.1825
    0.8153    4.8711    1.6970
    0.3751    5.9546    0.9275
   -0.1200    5.7446   -0.3615
   -0.1732    4.4447   -0.8784
    0.2668    3.3608   -0.1095
    0.2040    2.1180   -0.6331
   -0.6508    4.2358   -2.1238
   -0.5449    6.7881   -1.1052
    0.4329    7.2022    1.4402
   -2.7912   -1.7953    0.4272
   -3.7437   -2.7039   -0.7666
   -2.7767   -3.5722    0.4453
   -0.8337   -1.4519   -2.7080
   -1.6281   -0.5567   -1.3944
   -2.6066   -1.4377   -2.5879
   -1.6548   -4.8244   -1.3928
   -2.5943   -3.9299   -2.6075
   -0.8190   -3.9426   -2.6897
   -0.4165   -2.6905    0.6458
    2.0486   -3.5044    0.5352
    2.9197   -2.8244   -0.8563
    2.8205   -0.6942    0.1615
    1.0618    0.0934    3.2807
    2.6996    0.2893    2.6197
    1.1936    5.0608    2.6906
@<BUDE>CONF  7
   -2.8209    2.6905   -0.1905
   -1.6281    2.6905   -1.1422
   -1.6777    3.9367   -2.0214
   -1.6777    1.4443   -2.0214
   -0.3812    2.6905   -0.3636
    0.7933    2.6905   -0.9874
    0.8363    2.6905   -2.2166
    2.0731    2.6905   -0.1862
    2.2062    1.4098    0.5229
    1.5176    1.1941    1.6402
    0.7699    2.0665    2.0793
    1.6543   -0.1214    2.3686
    1.1887   -1.1810    1.5288
    1.2339   -2.4399    2.0139
    1.6628   -2.6452    3.1375
    0.7632   -3.5702    1.1825
    0.8153   -4.8711    1.6970
    0.3751   -5.9546    0.9275
   -0.1200   -5.7446   -0.3615
   -0.1732   -4.4447   -0.8784
    0.2668   -3.3608   -0.1096
    0.2040   -2.1180   -0.6332
   -0.6508   -4.2358   -2.1238
   -0.5449   -6.7881   -1.1052
    0.4329   -7.2022    1.4402
   -2.7912    3.5857    0.4272
   -3.7437    2.6771   -0.7666
   -2.7767    1.8088    0.4453
   -0.8337    3.9291   -2.7080
   -1.6281    4.8243   -1.3944
   -2.6066    3.9433   -2.5879
   -1.6548    0.5566   -1.3928
   -2.5943    1.4511   -2.6075
   -0.8190    1.4384   -2.6897
   -0.4165    2.6905    0.6458
    2.9197    2.8244   -0.8563
    2.0486    3.5044    0.5352
    2.8205    0.6942    0.1615
    2.6996   -0.2893    2.6197
    1.0618   -0.0934    3.2807
    1.1936   -5.0608    2.6906
@<BUDE>CONF  8
   -2.3706    1.7913   -0.6671
   -1.1778    1.7913   -1.6188
   -1.2274    3.0375   -2.4980
   -1.2274    0.5451   -2.4980
    0.0691    1.7913   -0.8402
    1.2436    1.7913   -1.4640
    1.2866    1.7913   -2.6932
    2.5234    1.7913   -0.6628
    2.6565    0.5106    0.0463
    3.0758   -0.5699   -0.6061
    3.3519   -0.4968   -1.8025
    3.2125   -1.8854    0.1224
    1.9283   -2.3060    0.5901
    1.2973   -1.5269    1.4941
    1.8246   -0.4993    1.8868
   -0.0337   -1.9200    2.0081
   -0.6270   -3.1019    1.5487
   -1.8854   -3.4924    2.0217
   -2.5589   -2.7039    2.9573
   -1.9680   -1.5215    3.4184
   -0.7097   -1.1304    2.9458
   -0.1634    0.0145    3.4076
   -2.6145   -0.7554    4.3227
   -3.7725   -3.0787    3.4147
   -2.4420   -4.6353    1.5674
   -2.3409    2.6865   -0.0494
   -3.2934    1.7779   -1.2432
   -2.3264    0.9096   -0.0313
   -0.3834    3.0299   -3.1846
   -1.1778    3.9251   -1.8710
   -2.1563    3.0441   -3.0645
   -1.2045   -0.3426   -1.8694
   -2.1440    0.5519   -3.0841
   -0.3687    0.5392   -3.1663
    0.0338    1.7913    0.1692
    3.3700    1.9252   -1.3329
    2.4989    2.6052    0.0586
    2.4295    0.4518    1.0287
    3.6155   -2.6346   -0.5559
    3.8851   -1.7624    0.9687
   -0.1275   -3.7295    0.8256
@<BUDE>CONF  9
   -5.2170   -0.4520    0.9337
   -4.0242   -0.4520   -0.0180
   -4.0738    0.7942   -0.8972
   -4.0738   -1.6982   -0.8972
   -2.7773   -0.4520    0.7606
   -1.6028   -0.4520    0.1368
   -1.5598   -0.4520   -1.0924
   -0.3230   -0.4520    0.9380
   -0.1899    0.8287    1.6471
    0.2294    1.9092    0.9947
    0.3408    2.9808    1.5881
    0.5684    1.8195   -0.4740
    1.6681    0.9235   -0.6546
    2.8512    1.2519   -0.0935
    2.9570    2.2865    0.5444
    4.0189    0.3567   -0.2525
    5.2403    0.7085    0.3343
    6.3575   -0.1238    0.1963
    6.2609   -1.3133   -0.5293
    5.0407   -1.6675   -1.1171
    3.9232   -0.8357   -0.9795
    2.7591   -1.2019   -1.5568
    4.9415   -2.8162   -1.8195
    7.3370   -2.1174   -0.6635
    7.5272    0.2316    0.7691
   -5.1873    0.4432    1.5514
   -6.1398   -0.4654    0.3576
   -5.1728   -1.3337    1.5695
   -3.2298    0.7866   -1.5838
   -4.0242    1.6818   -0.2702
   -5.0027    0.8008   -1.4637
   -4.0509   -2.5859   -0.2686
   -4.9904   -1.6914   -1.4833
   -3.2151   -1.7041   -1.5655
   -2.8126   -0.4520    1.7700
   -0.3475   -1.2659    1.6594
    0.5236   -0.5859    0.2679
   -0.4169    0.8875    2.6295
   -0.2953    1.4500   -1.0229
    0.8390    2.8062   -0.8440
    5.3418    1.6226    0.9004
@<BUDE>CONF  10
   -5.2170    0.4520    0.9337
   -4.0242    0.4520   -0.0180
   -4.0738    1.6982   -0.8972
   -4.0738   -0.7942   -0.8972
   -2.7773    0.4520    0.7606
   -1.6028    0.4520    0.1368
   -1.5598    0.4520   -1.0924
   -0.3230    0.4520    0.9380
   -0.1899   -0.8287    1.6471
    0.2294   -1.9092    0.9947
    0.3408   -2.9808    1.5881
    0.5684   -1.8195   -0.4740
    1.6681   -0.9235   -0.6546
    2.8512   -1.2519   -0.0935
    2.9570   -2.2865    0.5444
    4.0189   -0.3567   -0.2525
    5.2403   -0.7085    0.3343
    6.3575    0.1238    0.1963
    6.2609    1.3133   -0.5293
    5.0407    1.6675   -1.1171
    3.9232    0.8357   -0.9795
    2.7591    1.2019   -1.5568
    4.9415    2.8162   -1.8195
    7.3370    2.1174   -0.6635
    7.5272   -0.2316    0.7691
   -5.1873    1.3472    1.5514
   -6.1398    0.4386    0.3576
   -5.1728   -0.4297    1.5695
   -3.2298    1.6906   -1.5838
   -4.0242    2.5858   -0.2702
   -5.0027    1.7048   -1.4637
   -4.0509   -1.6819   -0.2686
   -4.9904   -0.7874   -1.4833
   -3.2151   -0.8001   -1.5655
   -2.8126    0.4520    1.7700
    0.5236    0.5859    0.2679
   -0.3475    1.2659    1.6594
   -0.4169   -0.8875    2.6295
    0.8390   -2.8062   -0.8440
   -0.2953   -1.4500   -1.0229
    5.3418   -1.6226    0.9004
@<BUDE>CONF  11
   -4.9489   -0.2565    1.5959
   -3.7561   -0.2565    0.6442
   -3.8057    0.9897   -0.2350
   -3.8057   -1.5027   -0.2350
   -2.5092   -0.2565    1.4228
   -1.3347   -0.2565    0.7990
   -1.2917   -0.2565   -0.4302
   -0.0549   -0.2565    1.6002
    0.0782    1.0242    2.3093
    0.4975    2.1047    1.6569
    0.6089    3.1763    2.2503
    0.8365    2.0150    0.1882
    1.9362    1.1190    0.0076
    2.3835    0.9107   -1.2490
    1.8512    1.4798   -2.1877
    3.5193   -0.0078   -1.4870
    3.9738   -0.2153   -2.7946
    5.0467   -1.0800   -3.0422
    5.6721   -1.7428   -1.9838
    5.2197   -1.5371   -0.6751
    4.1469   -0.6726   -0.4268
    3.7313   -0.4928    0.8450
    5.8205   -2.1751    0.3518
    6.7069   -2.5770   -2.2203
    5.4713   -1.2679   -4.3098
   -4.9192    0.6387    2.2136
   -5.8717   -0.2699    1.0198
   -4.9047   -1.1382    2.2317
   -2.9617    0.9821   -0.9216
   -3.7561    1.8773    0.3920
   -4.7346    0.9963   -0.8015
   -3.7828   -2.3904    0.3936
   -4.7223   -1.4959   -0.8211
   -2.9470   -1.5086   -0.9033
   -2.5445   -0.2565    2.4322
   -0.0794   -1.0704    2.3216
    0.7917   -0.3904    0.9301
   -0.1488    1.0830    3.2917
   -0.0272    1.6455   -0.3607
    1.1071    3.0017   -0.1818
    3.5077    0.2848   -3.6307
@<BUDE>CONF  12
   -4.9489    0.2565    1.5959
   -3.7561    0.2565    0.6442
   -3.8057    1.5027   -0.2350
   -3.8057   -0.9897   -0.2350
   -2.5092    0.2565    1.4228
   -1.3347    0.2565    0.7990
   -1.2917    0.2565   -0.4302
   -0.0549    0.2565    1.6002
    0.0782   -1.0242    2.3093
    0.4975   -2.1047    1.6569
    0.6089   -3.1763    2.2503
    0.8365   -2.0150    0.1882
    1.9362   -1.1190    0.0076
    2.3835   -0.9107   -1.2490
    1.8512   -1.4798   -2.1877
    3.5193    0.0078   -1.4870
    3.9738    0.2153   -2.7946
    5.0467    1.0800   -3.0422
    5.6721    1.7428   -1.9838
    5.2197    1.5371   -0.6751
    4.1469    0.6726   -0.4268
    3.7313    0.4928    0.8450
    5.8205    2.1751    0.3518
    6.7069    2.5770   -2.2203
    5.4713    1.2679   -4.3098
   -4.9192    1.1517    2.2136
   -5.8717    0.2431    1.0198
   -4.9047   -0.6252    2.2317
   -2.9617    1.4951   -0.9216
   -3.7561    2.3903    0.3920
   -4.7346    1.5093   -0.8015
   -3.7828   -1.8774    0.3936
   -4.7223   -0.9829   -0.8211
   -2.9470   -0.9956   -0.9033
   -2.5445    0.2565    2.4322
    0.7917    0.3904    0.9301
   -0.0794    1.0704    2.3216
   -0.1488   -1.0830    3.2917
    1.1071   -3.0017   -0.1818
   -0.0272   -1.6455   -0.3607
    3.5077   -0.2848   -3.6307
