@<TRIPOS>MOLECULE
ZINC61400536
   65    68     0     0     0
SMALL
USER_CHARGES

@<TRIPOS>ATOM
      1 C1          2.3218   -0.1873   -5.6096 C.3       1 <0>        -0.1457
      2 C2          1.6489   -0.6289   -4.3084 C.3       1 <0>         0.1768
      3 C3          0.5053   -1.5939   -4.6276 C.3       1 <0>        -0.1798
      4 C4          2.6748   -1.3310   -3.4165 C.3       1 <0>        -0.1802
      5 N1          1.1173    0.5446   -3.6109 N.pl3     1 <0>        -0.2386
      6 C5          0.4887    0.5219   -2.3984 C.2       1 <0>        -0.0401
      7 C6          0.1519    1.8336   -2.1126 C.2       1 <0>        -0.1820
      8 C7          0.6119    2.5791   -3.2004 C.2       1 <0>         0.0520
      9 N2          1.1761    1.7525   -4.0437 N.2       1 <0>        -0.2594
     10 C8          0.4859    4.0712   -3.3703 C.3       1 <0>        -0.0741
     11 C9         -0.5197    4.8014   -2.4779 C.3       1 <0>        -0.1663
     12 C10        -0.8177    4.6067   -3.9659 C.3       1 <0>        -0.1657
     13 C11         0.2225   -0.6604   -1.5635 C.2       1 <0>         0.5920
     14 O1          0.4847   -1.7719   -1.9820 O.2       1 <0>        -0.5202
     15 N3         -0.3118   -0.5115   -0.3351 N.am      1 <0>        -0.7096
     16 C12        -0.4745   -1.6758    0.5389 C.3       1 <0>         0.1269
     17 C13        -1.2081   -1.2573    1.8147 C.3       1 <0>         0.1209
     18 C14        -0.3757   -0.2500    2.5653 C.ar      1 <0>        -0.1261
     19 C15         0.6825   -0.6747    3.3474 C.ar      1 <0>        -0.0471
     20 C16         1.4468    0.2466    4.0369 C.ar      1 <0>        -0.1526
     21 C17         1.1522    1.5991    3.9437 C.ar      1 <0>         0.1329
     22 C18         0.0903    2.0227    3.1579 C.ar      1 <0>        -0.2055
     23 C19        -0.6678    1.0978    2.4663 C.ar      1 <0>        -0.0791
     24 O2          1.9023    2.5074    4.6213 O.3       1 <0>        -0.3169
     25 C20         1.5414    3.8826    4.4785 C.3       1 <0>         0.0263
     26 N4         -1.4303   -2.4371    2.6612 N.3       1 <0>        -0.5235
     27 C21        -2.0733   -3.5181    1.9001 C.3       1 <0>         0.0085
     28 C22        -2.2314   -4.7454    2.8016 C.3       1 <0>         0.0643
     29 O3         -2.9801   -4.3829    3.9649 O.3       1 <0>        -0.3844
     30 C23        -2.3822   -3.3331    4.7303 C.3       1 <0>         0.0641
     31 C24        -2.2256   -2.0914    3.8484 C.3       1 <0>         0.0200
     32 H1          1.5910    0.3129   -6.2451 H         1 <0>         0.0684
     33 H2          3.1365    0.5002   -5.3822 H         1 <0>         0.0673
     34 H3          2.7173   -1.0604   -6.1286 H         1 <0>         0.0762
     35 H4          0.8870   -2.4270   -5.2178 H         1 <0>         0.0772
     36 H5          0.0789   -1.9720   -3.6985 H         1 <0>         0.1076
     37 H6         -0.2647   -1.0701   -5.1940 H         1 <0>         0.0533
     38 H7          3.4452   -0.6195   -3.1193 H         1 <0>         0.0541
     39 H8          2.1777   -1.7204   -2.5280 H         1 <0>         0.1047
     40 H9          3.1322   -2.1533   -3.9667 H         1 <0>         0.0783
     41 H10        -0.3588    2.2022   -1.2352 H         1 <0>         0.1546
     42 H11         1.4076    4.5950   -3.6238 H         1 <0>         0.1185
     43 H12        -1.0901    4.2026   -1.7678 H         1 <0>         0.0960
     44 H13        -0.2597    5.8058   -2.1439 H         1 <0>         0.1015
     45 H14        -0.7537    5.4831   -4.6108 H         1 <0>         0.1002
     46 H15        -1.5842    3.8799   -4.2348 H         1 <0>         0.0943
     47 H16        -0.5885    0.3666   -0.0298 H         1 <0>         0.4026
     48 H17        -1.0534   -2.4407    0.0213 H         1 <0>         0.0820
     49 H18         0.5059   -2.0755    0.7981 H         1 <0>         0.0826
     50 H19        -2.1679   -0.8122    1.5525 H         1 <0>         0.0584
     51 H20         0.9114   -1.7277    3.4197 H         1 <0>         0.1381
     52 H21         2.2728   -0.0857    4.6482 H         1 <0>         0.1314
     53 H22        -0.1411    3.0751    3.0837 H         1 <0>         0.1295
     54 H23        -1.4919    1.4275    1.8509 H         1 <0>         0.1215
     55 H24         1.6112    4.1696    3.4293 H         1 <0>         0.0567
     56 H25         0.5192    4.0281    4.8278 H         1 <0>         0.0562
     57 H26         2.2185    4.4992    5.0697 H         1 <0>         0.1014
     58 H27        -3.0545   -3.1887    1.5582 H         1 <0>         0.0471
     59 H28        -1.4550   -3.7754    1.0401 H         1 <0>         0.0943
     60 H29        -2.7590   -5.5299    2.2590 H         1 <0>         0.0999
     61 H30        -1.2474   -5.1070    3.1000 H         1 <0>         0.0621
     62 H31        -3.0189   -3.0961    5.5827 H         1 <0>         0.0991
     63 H32        -1.4026   -3.6536    5.0848 H         1 <0>         0.0615
     64 H33        -1.7185   -1.3073    4.4106 H         1 <0>         0.0908
     65 H34        -3.2092   -1.7393    3.5377 H         1 <0>         0.0448
@<TRIPOS>BOND
     1    1    2 1
     2    1   32 1
     3    1   33 1
     4    1   34 1
     5    2    3 1
     6    2    4 1
     7    2    5 1
     8    3   35 1
     9    3   36 1
    10    3   37 1
    11    4   38 1
    12    4   39 1
    13    4   40 1
    14    5    9 1
    15    5    6 1
    16    6    7 2
    17    6   13 1
    18    7    8 1
    19    7   41 1
    20    8    9 2
    21    8   10 1
    22   10   12 1
    23   10   11 1
    24   10   42 1
    25   11   12 1
    26   11   43 1
    27   11   44 1
    28   12   45 1
    29   12   46 1
    30   13   14 2
    31   13   15 am
    32   15   16 1
    33   15   47 1
    34   16   17 1
    35   16   48 1
    36   16   49 1
    37   17   18 1
    38   17   26 1
    39   17   50 1
    40   18   23 ar
    41   18   19 ar
    42   19   20 ar
    43   19   51 1
    44   20   21 ar
    45   20   52 1
    46   21   22 ar
    47   21   24 1
    48   22   23 ar
    49   22   53 1
    50   23   54 1
    51   24   25 1
    52   25   55 1
    53   25   56 1
    54   25   57 1
    55   26   31 1
    56   26   27 1
    57   27   28 1
    58   27   58 1
    59   27   59 1
    60   28   29 1
    61   28   60 1
    62   28   61 1
    63   29   30 1
    64   30   31 1
    65   30   62 1
    66   30   63 1
    67   31   64 1
    68   31   65 1
@<BUDE>CONF  1
    0.6918    4.0669   -3.7294
    0.4876    2.5327   -3.9079
   -1.0135    2.1265   -3.7137
    0.8500    2.1426   -5.3821
    1.4147    1.8356   -3.0088
    1.1893    1.3109   -1.8307
    2.3137    0.7171   -1.4083
    3.2889    0.9087   -2.4661
    2.6872    1.5620   -3.3658
    4.7222    0.4588   -2.5482
    5.7083    1.3650   -3.3226
    5.2489    0.0236   -3.9362
   -0.0172    1.3093   -0.9743
   -1.0174    1.8931   -1.3573
    0.0106    0.7229    0.2500
   -1.1833    0.7320    1.0868
   -1.0225    0.0843    2.4946
   -0.6938   -1.3962    2.1883
   -1.6674   -2.2387    1.6411
   -1.3605   -3.5716    1.3577
   -0.0821   -4.0878    1.5898
    0.8845   -3.2486    2.1449
    0.5815   -1.9154    2.4420
    0.1694   -5.4377    1.2760
   -0.8559   -6.4392    1.3980
   -2.2541    0.0450    3.3315
   -2.0654   -0.6014    4.6706
   -3.4129   -0.7366    5.4240
   -4.0216    0.5587    5.5532
   -4.2791    1.1637    4.2791
   -2.9590    1.3402    3.4852
    1.7454    4.3365   -3.9130
    0.4172    4.3663   -2.7042
    0.0562    4.6163   -4.4395
   -1.3454    2.3629   -2.6887
   -1.6488    2.6711   -4.4321
   -1.1808    1.0500   -3.8541
    0.7066    1.0606   -5.5434
    1.9019    2.3974   -5.5956
    0.2049    2.6865   -6.0924
    2.4912    0.2007   -0.4644
    5.1593   -0.0871   -1.6946
    5.2960    2.2805   -3.7780
    6.7377    1.4186   -2.9296
    4.5424    0.0813   -4.7807
    5.9798   -0.8025   -3.9468
    0.8505    0.2906    0.5733
   -1.9872    0.1848    0.5611
   -1.5094    1.7741    1.2522
   -0.2004    0.5922    3.0310
   -2.6661   -1.8652    1.4340
   -2.1177   -4.2255    0.9348
    1.8871   -3.6016    2.3589
    1.3468   -1.2782    2.8762
   -1.6933   -6.1841    0.7291
   -0.4587   -7.4252    1.1040
   -1.2329   -6.4720    2.4340
   -1.3885   -0.0048    5.3086
   -1.6363   -1.6157    4.6011
   -4.0821   -1.4264    4.8785
   -3.2571   -1.1419    6.4391
   -4.9944    0.5560    3.6955
   -4.7415    2.1498    4.4609
   -2.3195    2.0579    4.0285
   -3.2070    1.7674    2.4967
@<BUDE>CONF  2
    0.7311    4.2072   -3.8119
    0.5269    2.6730   -3.9904
   -0.9742    2.2668   -3.7962
    0.8893    2.2829   -5.4646
    1.4540    1.9759   -3.0913
    1.2286    1.4512   -1.9132
    2.3530    0.8574   -1.4908
    3.3282    1.0490   -2.5486
    2.7265    1.7023   -3.4483
    4.7615    0.5991   -2.6307
    5.0843   -0.5753   -3.5845
    5.0992   -0.7968   -2.0556
    0.0221    1.4496   -1.0568
   -0.9781    2.0334   -1.4398
    0.0499    0.8632    0.1675
   -1.1440    0.8723    1.0043
   -0.9832    0.2246    2.4121
   -0.6545   -1.2559    2.1058
   -1.6281   -2.0984    1.5586
   -1.3212   -3.4313    1.2752
   -0.0428   -3.9475    1.5073
    0.9238   -3.1083    2.0624
    0.6208   -1.7751    2.3595
    0.2087   -5.2974    1.1935
   -0.8166   -6.2989    1.3155
   -2.2148    0.1853    3.2490
   -2.0261   -0.4611    4.5881
   -3.3736   -0.5963    5.3415
   -3.9823    0.6990    5.4707
   -4.2398    1.3040    4.1966
   -2.9197    1.4805    3.4027
    1.7847    4.4768   -3.9955
    0.4565    4.5066   -2.7867
    0.0955    4.7566   -4.5220
   -1.3061    2.5032   -2.7712
   -1.6095    2.8114   -4.5146
   -1.1415    1.1903   -3.9366
    0.7459    1.2009   -5.6259
    1.9412    2.5377   -5.6781
    0.2442    2.8268   -6.1749
    2.5305    0.3410   -0.5469
    5.5629    1.3504   -2.5246
    4.2398   -1.0191   -4.1371
    6.0576   -0.5340   -4.1021
    4.2646   -1.3790   -1.6312
    6.0845   -0.9027   -1.5711
    0.8898    0.4309    0.4908
   -1.9479    0.3251    0.4786
   -1.4701    1.9144    1.1697
   -0.1611    0.7325    2.9485
   -2.6268   -1.7249    1.3515
   -2.0784   -4.0852    0.8523
    1.9264   -3.4613    2.2764
    1.3861   -1.1379    2.7937
   -1.6540   -6.0438    0.6466
   -0.4194   -7.2849    1.0215
   -1.1936   -6.3317    2.3515
   -1.3492    0.1355    5.2261
   -1.5970   -1.4754    4.5186
   -4.0428   -1.2861    4.7960
   -3.2178   -1.0016    6.3566
   -4.9551    0.6963    3.6130
   -4.7022    2.2901    4.3784
   -2.2802    2.1982    3.9460
   -3.1677    1.9077    2.4142
@<BUDE>CONF  3
    0.8363    2.8753   -4.1954
    0.6321    1.3411   -4.3739
   -0.8690    0.9349   -4.1797
    0.9945    0.9510   -5.8481
    1.5592    0.6440   -3.4748
    1.3338    0.1193   -2.2967
    2.4582   -0.4745   -1.8743
    3.4334   -0.2829   -2.9321
    2.8317    0.3704   -3.8318
    4.8667   -0.7328   -3.0142
    5.8528    0.1734   -3.7886
    5.3934   -1.1680   -4.4022
    0.1273    0.1177   -1.4403
   -0.8729    0.7015   -1.8233
    0.1551   -0.4687   -0.2160
   -1.0388   -0.4596    0.6208
   -0.8780   -1.1073    2.0286
   -2.3147   -1.1117    2.6030
   -2.9394    0.0892    2.9560
   -4.2403    0.0784    3.4644
   -4.9526   -1.1155    3.6120
   -4.3241   -2.3129    3.2688
   -3.0172   -2.3113    2.7695
   -6.2643   -1.0617    4.1225
   -7.1256    0.0600    3.8596
   -0.0690   -0.3298    3.0082
    0.0480   -0.9748    4.3562
    0.7767   -0.0473    5.3613
    2.0686    0.3040    4.8393
    1.9751    0.9895    3.5835
    1.2673    0.0987    2.5301
    1.8899    3.1449   -4.3790
    0.5617    3.1747   -3.1702
    0.2007    3.4247   -4.9055
   -1.2009    1.1713   -3.1547
   -1.5043    1.4795   -4.8981
   -1.0363   -0.1416   -4.3201
    0.8511   -0.1310   -6.0094
    2.0464    1.2058   -6.0616
    0.3494    1.4949   -6.5584
    2.6357   -0.9909   -0.9304
    5.3038   -1.2787   -2.1606
    5.4405    1.0889   -4.2440
    6.8822    0.2270   -3.3956
    4.6869   -1.1103   -5.2467
    6.1243   -1.9941   -4.4128
    0.9950   -0.9010    0.1073
   -1.8427   -1.0068    0.0951
   -1.3649    0.5825    0.7862
   -0.4730   -2.1287    1.9091
   -2.4197    1.0358    2.8392
   -4.7236    1.0113    3.7403
   -4.8253   -3.2682    3.3774
   -2.5439   -3.2542    2.5102
   -7.2819    0.1499    2.7727
   -8.1045   -0.0929    4.3442
   -6.6591    0.9904    4.2244
    0.6237   -1.9164    4.2981
   -0.9316   -1.2199    4.8014
    0.1725    0.8599    5.5432
    0.9281   -0.5575    6.3288
    1.4315    1.9448    3.6993
    3.0013    1.2219    3.2486
    1.9022   -0.7840    2.3377
    1.1775    0.6789    1.5940
@<BUDE>CONF  4
    0.6720    4.0341   -3.8949
    0.4678    2.4999   -4.0734
   -1.0333    2.0937   -3.8792
    0.8302    2.1098   -5.5476
    1.3949    1.8028   -3.1743
    1.1695    1.2781   -1.9962
    2.2939    0.6843   -1.5738
    3.2691    0.8759   -2.6316
    2.6674    1.5292   -3.5313
    4.7024    0.4260   -2.7137
    5.5514    0.5183   -1.4238
    5.7944    1.5138   -2.5799
   -0.0370    1.2765   -1.1398
   -1.0372    1.8603   -1.5228
   -0.0092    0.6901    0.0845
   -1.2031    0.6992    0.9213
   -1.0423    0.0515    2.3291
   -0.7136   -1.4290    2.0228
   -1.6872   -2.2715    1.4756
   -1.3803   -3.6044    1.1922
   -0.1019   -4.1206    1.4243
    0.8647   -3.2814    1.9794
    0.5617   -1.9482    2.2765
    0.1496   -5.4705    1.1105
   -0.8757   -6.4720    1.2325
   -2.2739    0.0122    3.1660
   -2.0852   -0.6342    4.5051
   -3.4327   -0.7694    5.2585
   -4.0414    0.5259    5.3877
   -4.2989    1.1309    4.1136
   -2.9788    1.3074    3.3197
    1.7256    4.3037   -4.0785
    0.3974    4.3335   -2.8697
    0.0364    4.5835   -4.6050
   -1.3652    2.3301   -2.8542
   -1.6686    2.6383   -4.5976
   -1.2006    1.0172   -4.0196
    0.6868    1.0278   -5.7089
    1.8821    2.3646   -5.7611
    0.1851    2.6537   -6.2579
    2.4714    0.1679   -0.6299
    4.9610   -0.4100   -3.3860
    5.0556    0.9205   -0.5249
    6.3005   -0.2770   -1.2713
    5.4524    2.5499   -2.4216
    6.7057    1.3712   -3.1848
    0.8307    0.2578    0.4078
   -2.0070    0.1520    0.3956
   -1.5292    1.7413    1.0867
   -0.2202    0.5594    2.8655
   -2.6859   -1.8980    1.2685
   -2.1375   -4.2583    0.7693
    1.8673   -3.6344    2.1934
    1.3270   -1.3110    2.7107
   -1.7131   -6.2169    0.5636
   -0.4785   -7.4580    0.9385
   -1.2527   -6.5048    2.2685
   -1.4083   -0.0376    5.1431
   -1.6561   -1.6485    4.4356
   -4.1019   -1.4592    4.7130
   -3.2769   -1.1747    6.2736
   -5.0142    0.5232    3.5300
   -4.7613    2.1170    4.2954
   -2.3393    2.0251    3.8630
   -3.2268    1.7346    2.3312
@<BUDE>CONF  5
    0.7067    4.1494   -3.9219
    0.5025    2.6152   -4.1004
   -0.9986    2.2090   -3.9062
    0.8649    2.2251   -5.5746
    1.4296    1.9181   -3.2013
    1.2042    1.3934   -2.0232
    2.3286    0.7996   -1.6008
    3.3038    0.9912   -2.6586
    2.7021    1.6445   -3.5583
    4.7371    0.5413   -2.7407
    5.1053   -0.7899   -2.0439
    5.5589    0.5533   -1.4300
   -0.0023    1.3918   -1.1668
   -1.0025    1.9756   -1.5498
    0.0255    0.8054    0.0575
   -1.1684    0.8145    0.8943
   -1.0076    0.1668    2.3021
   -0.6789   -1.3137    1.9958
   -1.6525   -2.1562    1.4486
   -1.3456   -3.4891    1.1652
   -0.0672   -4.0053    1.3973
    0.8994   -3.1661    1.9524
    0.5964   -1.8329    2.2495
    0.1843   -5.3552    1.0835
   -0.8410   -6.3567    1.2055
   -2.2392    0.1275    3.1390
   -2.0505   -0.5189    4.4781
   -3.3980   -0.6541    5.2315
   -4.0067    0.6412    5.3607
   -4.2642    1.2462    4.0866
   -2.9441    1.4227    3.2927
    1.7603    4.4190   -4.1055
    0.4321    4.4488   -2.8967
    0.0711    4.6988   -4.6320
   -1.3305    2.4454   -2.8812
   -1.6339    2.7536   -4.6246
   -1.1659    1.1325   -4.0466
    0.7215    1.1431   -5.7359
    1.9168    2.4799   -5.7881
    0.2198    2.7690   -6.2849
    2.5061    0.2832   -0.6569
    5.3157    0.7685   -3.6526
    4.2950   -1.3216   -1.5185
    5.8730   -1.4076   -2.5399
    5.0379    0.8809   -0.5152
    6.6265    0.8150   -1.5225
    0.8654    0.3731    0.3808
   -1.9723    0.2673    0.3686
   -1.4945    1.8566    1.0597
   -0.1855    0.6747    2.8385
   -2.6512   -1.7827    1.2415
   -2.1028   -4.1430    0.7423
    1.9020   -3.5191    2.1664
    1.3617   -1.1957    2.6837
   -1.6784   -6.1016    0.5366
   -0.4438   -7.3427    0.9115
   -1.2180   -6.3895    2.2415
   -1.3736    0.0777    5.1161
   -1.6214   -1.5332    4.4086
   -4.0672   -1.3439    4.6860
   -3.2422   -1.0594    6.2466
   -4.9795    0.6385    3.5030
   -4.7266    2.2323    4.2684
   -2.3046    2.1404    3.8360
   -3.1921    1.8499    2.3042
@<BUDE>CONF  6
    0.8756    3.0156   -4.2779
    0.6714    1.4814   -4.4564
   -0.8297    1.0752   -4.2622
    1.0338    1.0913   -5.9306
    1.5985    0.7843   -3.5573
    1.3731    0.2596   -2.3792
    2.4975   -0.3342   -1.9568
    3.4727   -0.1426   -3.0146
    2.8710    0.5107   -3.9143
    4.9060   -0.5925   -3.0967
    5.2288   -1.7669   -4.0505
    5.2437   -1.9884   -2.5216
    0.1666    0.2580   -1.5228
   -0.8336    0.8418   -1.9058
    0.1944   -0.3284   -0.2985
   -0.9995   -0.3193    0.5383
   -0.8387   -0.9670    1.9461
   -2.2754   -0.9714    2.5205
   -2.9001    0.2295    2.8735
   -4.2010    0.2187    3.3819
   -4.9133   -0.9752    3.5295
   -4.2848   -2.1726    3.1863
   -2.9779   -2.1710    2.6870
   -6.2250   -0.9214    4.0400
   -7.0863    0.2003    3.7771
   -0.0297   -0.1895    2.9257
    0.0873   -0.8345    4.2737
    0.8160    0.0930    5.2788
    2.1079    0.4443    4.7568
    2.0144    1.1298    3.5010
    1.3066    0.2390    2.4476
    1.9292    3.2852   -4.4615
    0.6010    3.3150   -3.2527
    0.2400    3.5650   -4.9880
   -1.1616    1.3116   -3.2372
   -1.4650    1.6198   -4.9806
   -0.9970   -0.0013   -4.4026
    0.8904    0.0093   -6.0919
    2.0857    1.3461   -6.1441
    0.3887    1.6352   -6.6409
    2.6750   -0.8506   -1.0129
    5.7074    0.1588   -2.9906
    4.3843   -2.2107   -4.6031
    6.2021   -1.7256   -4.5681
    4.4091   -2.5706   -2.0972
    6.2290   -2.0943   -2.0371
    1.0343   -0.7607    0.0248
   -1.8034   -0.8665    0.0126
   -1.3256    0.7228    0.7037
   -0.4337   -1.9884    1.8266
   -2.3804    1.1761    2.7567
   -4.6843    1.1516    3.6578
   -4.7860   -3.1279    3.2949
   -2.5046   -3.1139    2.4277
   -7.2426    0.2902    2.6902
   -8.0652    0.0474    4.2617
   -6.6198    1.1307    4.1419
    0.6630   -1.7761    4.2156
   -0.8923   -1.0796    4.7189
    0.2118    1.0002    5.4607
    0.9674   -0.4172    6.2463
    1.4708    2.0851    3.6168
    3.0406    1.3622    3.1661
    1.9415   -0.6437    2.2552
    1.2168    0.8192    1.5115
@<BUDE>CONF  7
    0.6965    4.0582   -3.7251
    0.4923    2.5240   -3.9036
   -1.0088    2.1178   -3.7094
    0.8547    2.1339   -5.3778
    1.4194    1.8269   -3.0045
    1.1940    1.3022   -1.8264
    2.3184    0.7084   -1.4040
    3.2936    0.9000   -2.4618
    2.6919    1.5533   -3.3615
    4.7269    0.4501   -2.5439
    5.7130    1.3563   -3.3183
    5.2536    0.0149   -3.9319
   -0.0125    1.3006   -0.9700
   -1.0127    1.8844   -1.3530
    0.0153    0.7142    0.2543
   -1.1786    0.7233    1.0911
   -1.0178    0.0756    2.4989
   -0.6891   -1.4049    2.1926
   -1.6758   -2.2594    1.6893
   -1.3692   -3.5922    1.4055
   -0.0789   -4.0967    1.5936
    0.9011   -3.2455    2.1051
    0.5989   -1.9122    2.4024
    0.1712   -5.4473    1.2816
   -0.8408   -6.4555    1.4503
   -2.2494    0.0363    3.3358
   -2.9505    1.3555    3.4578
   -4.2932    1.2099    4.2176
   -4.0522    0.6279    5.5092
   -3.4487   -0.6691    5.4128
   -2.0885   -0.5814    4.6739
    1.7501    4.3278   -3.9087
    0.4219    4.3576   -2.6999
    0.0609    4.6076   -4.4352
   -1.3407    2.3542   -2.6844
   -1.6441    2.6624   -4.4278
   -1.1761    1.0413   -3.8498
    0.7113    1.0519   -5.5391
    1.9066    2.3887   -5.5913
    0.2096    2.6778   -6.0881
    2.4959    0.1920   -0.4601
    5.1640   -0.0958   -1.6903
    5.3007    2.2718   -3.7737
    6.7424    1.4099   -2.9253
    4.5471    0.0726   -4.7764
    5.9845   -0.8112   -3.9425
    0.8552    0.2819    0.5776
   -1.9825    0.1761    0.5654
   -1.5047    1.7654    1.2565
   -0.1957    0.5835    3.0353
   -2.6845   -1.8953    1.5169
   -2.1366   -4.2555    1.0168
    1.9137   -3.5890    2.2841
    1.3749   -1.2656    2.8023
   -1.7046   -6.2124    0.8113
   -0.4471   -7.4409    1.1496
   -1.1783   -6.4824    2.5000
   -3.1781    1.7786    2.4625
   -2.3561    2.1088    4.0028
   -4.7761    2.1984    4.3221
   -4.9854    0.5468    3.6696
   -3.3075   -1.1098    6.4165
   -4.1392   -1.3217    4.8502
   -1.6805   -1.6026    4.5736
   -1.3969    0.0147    5.2965
@<BUDE>CONF  8
    0.7358    4.1985   -3.8075
    0.5316    2.6643   -3.9860
   -0.9695    2.2581   -3.7918
    0.8940    2.2742   -5.4602
    1.4587    1.9672   -3.0869
    1.2333    1.4425   -1.9088
    2.3577    0.8487   -1.4864
    3.3329    1.0403   -2.5442
    2.7312    1.6936   -3.4439
    4.7662    0.5904   -2.6263
    5.0890   -0.5840   -3.5801
    5.1039   -0.8055   -2.0512
    0.0268    1.4409   -1.0524
   -0.9734    2.0247   -1.4354
    0.0546    0.8545    0.1719
   -1.1393    0.8636    1.0087
   -0.9785    0.2159    2.4165
   -0.6498   -1.2646    2.1102
   -1.6365   -2.1191    1.6069
   -1.3299   -3.4519    1.3231
   -0.0396   -3.9564    1.5112
    0.9404   -3.1052    2.0227
    0.6382   -1.7719    2.3200
    0.2105   -5.3070    1.1992
   -0.8015   -6.3152    1.3679
   -2.2101    0.1766    3.2534
   -2.9112    1.4958    3.3754
   -4.2539    1.3502    4.1352
   -4.0129    0.7682    5.4268
   -3.4094   -0.5288    5.3304
   -2.0492   -0.4411    4.5915
    1.7894    4.4681   -3.9911
    0.4612    4.4979   -2.7823
    0.1002    4.7479   -4.5176
   -1.3014    2.4945   -2.7668
   -1.6048    2.8027   -4.5102
   -1.1368    1.1816   -3.9322
    0.7506    1.1922   -5.6215
    1.9459    2.5290   -5.6737
    0.2489    2.8181   -6.1705
    2.5352    0.3323   -0.5425
    5.5676    1.3417   -2.5202
    4.2445   -1.0278   -4.1327
    6.0623   -0.5427   -4.0977
    4.2693   -1.3877   -1.6268
    6.0892   -0.9114   -1.5667
    0.8945    0.4222    0.4952
   -1.9432    0.3164    0.4830
   -1.4654    1.9057    1.1741
   -0.1564    0.7238    2.9529
   -2.6452   -1.7550    1.4345
   -2.0973   -4.1152    0.9344
    1.9530   -3.4487    2.2017
    1.4142   -1.1253    2.7199
   -1.6653   -6.0721    0.7289
   -0.4078   -7.3006    1.0672
   -1.1390   -6.3421    2.4176
   -3.1388    1.9189    2.3801
   -2.3168    2.2491    3.9204
   -4.7368    2.3387    4.2397
   -4.9461    0.6871    3.5872
   -3.2682   -0.9695    6.3341
   -4.0999   -1.1814    4.7678
   -1.6412   -1.4623    4.4912
   -1.3576    0.1550    5.2141
@<BUDE>CONF  9
    0.8300    2.8664   -4.1886
    0.6258    1.3322   -4.3671
   -0.8753    0.9260   -4.1729
    0.9882    0.9421   -5.8413
    1.5529    0.6351   -3.4680
    1.3275    0.1104   -2.2899
    2.4519   -0.4834   -1.8675
    3.4271   -0.2918   -2.9253
    2.8254    0.3615   -3.8250
    4.8604   -0.7417   -3.0074
    5.8465    0.1645   -3.7818
    5.3871   -1.1769   -4.3954
    0.1210    0.1088   -1.4335
   -0.8792    0.6926   -1.8165
    0.1488   -0.4776   -0.2092
   -1.0451   -0.4685    0.6276
   -0.8843   -1.1162    2.0354
   -2.3210   -1.1206    2.6098
   -2.9282    0.0756    3.0066
   -4.2291    0.0653    3.5148
   -4.9588   -1.1227    3.6190
   -4.3478   -2.3159    3.2321
   -3.0410   -2.3151    2.7327
   -6.2697   -1.0684    4.1317
   -7.1146    0.0745    3.9100
   -0.0753   -0.3387    3.0150
    1.2623    0.0965    2.4976
    1.9845    1.0183    3.5127
    2.1106    0.3380    4.7721
    0.8361   -0.0218    5.3213
    0.0731   -0.9614    4.3523
    1.8836    3.1360   -4.3722
    0.5554    3.1658   -3.1634
    0.1944    3.4158   -4.8987
   -1.2072    1.1624   -3.1479
   -1.5106    1.4706   -4.8913
   -1.0426   -0.1505   -4.3133
    0.8448   -0.1399   -6.0026
    2.0401    1.1969   -6.0548
    0.3431    1.4860   -6.5516
    2.6294   -0.9998   -0.9236
    5.2975   -1.2876   -2.1538
    5.4342    1.0800   -4.2372
    6.8759    0.2181   -3.3888
    4.6806   -1.1192   -5.2399
    6.1180   -2.0030   -4.4060
    0.9887   -0.9099    0.1141
   -1.8490   -1.0157    0.1019
   -1.3712    0.5736    0.7930
   -0.4793   -2.1376    1.9159
   -2.3947    1.0182    2.9242
   -4.6989    0.9944    3.8246
   -4.8629   -3.2671    3.3060
   -2.5814   -3.2547    2.4390
   -7.2693    0.2062    2.8272
   -8.0956   -0.0817    4.3891
   -6.6346    0.9841    4.3084
    1.1590    0.6616    1.5534
    1.9413   -0.7500    2.2969
    2.9796    1.3007    3.1236
    1.4079    1.9444    3.6826
    0.9585   -0.5101    6.3053
    0.2595    0.9075    5.4735
   -0.9208   -1.1740    4.7840
    0.6355   -1.9098    4.2791
@<BUDE>CONF  10
    0.6767    4.0254   -3.8905
    0.4725    2.4912   -4.0690
   -1.0286    2.0850   -3.8748
    0.8349    2.1011   -5.5432
    1.3996    1.7941   -3.1699
    1.1742    1.2694   -1.9918
    2.2986    0.6756   -1.5694
    3.2738    0.8672   -2.6272
    2.6721    1.5205   -3.5269
    4.7071    0.4173   -2.7093
    5.5561    0.5096   -1.4194
    5.7991    1.5051   -2.5755
   -0.0323    1.2678   -1.1354
   -1.0325    1.8516   -1.5184
   -0.0045    0.6814    0.0889
   -1.1984    0.6905    0.9257
   -1.0376    0.0428    2.3335
   -0.7089   -1.4377    2.0272
   -1.6956   -2.2922    1.5239
   -1.3890   -3.6250    1.2401
   -0.0987   -4.1295    1.4282
    0.8813   -3.2783    1.9397
    0.5791   -1.9450    2.2370
    0.1514   -5.4801    1.1162
   -0.8606   -6.4883    1.2849
   -2.2692    0.0035    3.1704
   -2.9703    1.3227    3.2924
   -4.3130    1.1771    4.0522
   -4.0720    0.5951    5.3438
   -3.4685   -0.7019    5.2474
   -2.1083   -0.6142    4.5085
    1.7303    4.2950   -4.0741
    0.4021    4.3248   -2.8653
    0.0411    4.5748   -4.6006
   -1.3605    2.3214   -2.8498
   -1.6639    2.6296   -4.5932
   -1.1959    1.0085   -4.0152
    0.6915    1.0191   -5.7045
    1.8868    2.3559   -5.7567
    0.1898    2.6450   -6.2535
    2.4761    0.1592   -0.6255
    4.9657   -0.4187   -3.3816
    5.0603    0.9118   -0.5205
    6.3052   -0.2857   -1.2669
    5.4571    2.5412   -2.4172
    6.7104    1.3625   -3.1804
    0.8354    0.2491    0.4122
   -2.0023    0.1433    0.4000
   -1.5245    1.7326    1.0911
   -0.2155    0.5507    2.8699
   -2.7043   -1.9281    1.3515
   -2.1564   -4.2883    0.8514
    1.8939   -3.6218    2.1187
    1.3551   -1.2984    2.6369
   -1.7244   -6.2452    0.6459
   -0.4669   -7.4737    0.9842
   -1.1981   -6.5152    2.3346
   -3.1979    1.7458    2.2971
   -2.3759    2.0760    3.8374
   -4.7959    2.1656    4.1567
   -5.0052    0.5140    3.5042
   -3.3273   -1.1426    6.2511
   -4.1590   -1.3545    4.6848
   -1.7003   -1.6354    4.4082
   -1.4167   -0.0181    5.1311
@<BUDE>CONF  11
    0.7114    4.1407   -3.9176
    0.5072    2.6065   -4.0961
   -0.9939    2.2003   -3.9019
    0.8696    2.2164   -5.5703
    1.4343    1.9094   -3.1970
    1.2089    1.3847   -2.0189
    2.3333    0.7909   -1.5965
    3.3085    0.9825   -2.6543
    2.7068    1.6358   -3.5540
    4.7418    0.5326   -2.7364
    5.1100   -0.7986   -2.0396
    5.5636    0.5446   -1.4257
    0.0024    1.3831   -1.1625
   -0.9978    1.9669   -1.5455
    0.0302    0.7967    0.0618
   -1.1637    0.8058    0.8986
   -1.0029    0.1581    2.3064
   -0.6742   -1.3224    2.0001
   -1.6609   -2.1769    1.4968
   -1.3543   -3.5097    1.2130
   -0.0640   -4.0142    1.4011
    0.9160   -3.1630    1.9126
    0.6138   -1.8297    2.2099
    0.1861   -5.3648    1.0891
   -0.8259   -6.3730    1.2578
   -2.2345    0.1188    3.1433
   -2.9356    1.4380    3.2653
   -4.2783    1.2924    4.0251
   -4.0373    0.7104    5.3167
   -3.4338   -0.5866    5.2203
   -2.0736   -0.4989    4.4814
    1.7650    4.4103   -4.1012
    0.4368    4.4401   -2.8924
    0.0758    4.6901   -4.6277
   -1.3258    2.4367   -2.8769
   -1.6292    2.7449   -4.6203
   -1.1612    1.1238   -4.0423
    0.7262    1.1344   -5.7316
    1.9215    2.4712   -5.7838
    0.2245    2.7603   -6.2806
    2.5108    0.2745   -0.6526
    5.3204    0.7598   -3.6483
    4.2997   -1.3303   -1.5142
    5.8777   -1.4163   -2.5356
    5.0426    0.8722   -0.5109
    6.6312    0.8063   -1.5182
    0.8701    0.3644    0.3851
   -1.9676    0.2586    0.3729
   -1.4898    1.8479    1.0640
   -0.1808    0.6660    2.8428
   -2.6696   -1.8128    1.3244
   -2.1217   -4.1730    0.8243
    1.9286   -3.5065    2.0916
    1.3898   -1.1831    2.6098
   -1.6897   -6.1299    0.6188
   -0.4322   -7.3584    0.9571
   -1.1634   -6.3999    2.3075
   -3.1632    1.8611    2.2700
   -2.3412    2.1913    3.8103
   -4.7612    2.2809    4.1296
   -4.9705    0.6293    3.4771
   -3.2926   -1.0273    6.2240
   -4.1243   -1.2392    4.6577
   -1.6656   -1.5201    4.3811
   -1.3820    0.0972    5.1040
@<BUDE>CONF  12
    0.8693    3.0067   -4.2710
    0.6651    1.4725   -4.4495
   -0.8360    1.0663   -4.2553
    1.0275    1.0824   -5.9237
    1.5922    0.7754   -3.5504
    1.3668    0.2507   -2.3723
    2.4912   -0.3431   -1.9499
    3.4664   -0.1515   -3.0077
    2.8647    0.5018   -3.9074
    4.8997   -0.6014   -3.0898
    5.2225   -1.7758   -4.0436
    5.2374   -1.9973   -2.5147
    0.1603    0.2491   -1.5159
   -0.8399    0.8329   -1.8989
    0.1881   -0.3373   -0.2916
   -1.0058   -0.3282    0.5452
   -0.8450   -0.9759    1.9530
   -2.2817   -0.9803    2.5274
   -2.8889    0.2159    2.9242
   -4.1898    0.2056    3.4324
   -4.9195   -0.9824    3.5366
   -4.3085   -2.1756    3.1497
   -3.0017   -2.1748    2.6503
   -6.2304   -0.9281    4.0493
   -7.0753    0.2148    3.8276
   -0.0360   -0.1984    2.9326
    1.3016    0.2368    2.4152
    2.0238    1.1586    3.4303
    2.1499    0.4783    4.6897
    0.8754    0.1185    5.2389
    0.1124   -0.8211    4.2699
    1.9229    3.2763   -4.4546
    0.5947    3.3061   -3.2458
    0.2337    3.5561   -4.9811
   -1.1679    1.3027   -3.2303
   -1.4713    1.6109   -4.9737
   -1.0033   -0.0102   -4.3957
    0.8841    0.0004   -6.0850
    2.0794    1.3372   -6.1372
    0.3824    1.6263   -6.6340
    2.6687   -0.8595   -1.0060
    5.7011    0.1499   -2.9837
    4.3780   -2.2196   -4.5962
    6.1958   -1.7345   -4.5612
    4.4028   -2.5795   -2.0903
    6.2227   -2.1032   -2.0302
    1.0280   -0.7696    0.0317
   -1.8097   -0.8754    0.0195
   -1.3319    0.7139    0.7106
   -0.4400   -1.9973    1.8335
   -2.3554    1.1585    2.8418
   -4.6596    1.1347    3.7422
   -4.8236   -3.1268    3.2236
   -2.5421   -3.1144    2.3566
   -7.2300    0.3465    2.7448
   -8.0563    0.0586    4.3067
   -6.5953    1.1244    4.2260
    1.1983    0.8019    1.4710
    1.9806   -0.6097    2.2145
    3.0189    1.4410    3.0412
    1.4472    2.0847    3.6002
    0.9978   -0.3698    6.2229
    0.2988    1.0478    5.3911
   -0.8815   -1.0337    4.7016
    0.6748   -1.7695    4.1967
@<BUDE>CONF  13
    0.8102    2.8335   -4.3540
    0.6060    1.2993   -4.5325
   -0.8951    0.8931   -4.3383
    0.9684    0.9092   -6.0067
    1.5331    0.6022   -3.6334
    1.3077    0.0775   -2.4553
    2.4321   -0.5163   -2.0329
    3.4073   -0.3247   -3.0907
    2.8056    0.3286   -3.9904
    4.8406   -0.7746   -3.1728
    5.6896   -0.6823   -1.8829
    5.9326    0.3132   -3.0390
    0.1012    0.0759   -1.5989
   -0.8990    0.6597   -1.9819
    0.1290   -0.5105   -0.3746
   -1.0649   -0.5014    0.4622
   -0.9041   -1.1491    1.8700
   -2.3408   -1.1535    2.4444
   -2.9480    0.0427    2.8412
   -4.2489    0.0324    3.3494
   -4.9786   -1.1556    3.4536
   -4.3676   -2.3488    3.0667
   -3.0608   -2.3480    2.5673
   -6.2895   -1.1013    3.9663
   -7.1344    0.0416    3.7446
   -0.0951   -0.3716    2.8496
    1.2425    0.0636    2.3322
    1.9647    0.9854    3.3473
    2.0908    0.3051    4.6067
    0.8163   -0.0547    5.1559
    0.0533   -0.9943    4.1869
    1.8638    3.1031   -4.5376
    0.5356    3.1329   -3.3288
    0.1746    3.3829   -5.0641
   -1.2270    1.1295   -3.3133
   -1.5304    1.4377   -5.0567
   -1.0624   -0.1834   -4.4787
    0.8250   -0.1728   -6.1680
    2.0203    1.1640   -6.2202
    0.3233    1.4531   -6.7170
    2.6096   -1.0327   -1.0890
    5.0992   -1.6106   -3.8451
    5.1938   -0.2801   -0.9840
    6.4387   -1.4776   -1.7304
    5.5906    1.3493   -2.8807
    6.8439    0.1706   -3.6439
    0.9689   -0.9428   -0.0513
   -1.8688   -1.0486   -0.0635
   -1.3910    0.5407    0.6276
   -0.4991   -2.1705    1.7505
   -2.4145    0.9853    2.7588
   -4.7187    0.9615    3.6592
   -4.8827   -3.3000    3.1406
   -2.6012   -3.2876    2.2736
   -7.2891    0.1733    2.6618
   -8.1154   -0.1146    4.2237
   -6.6544    0.9512    4.1430
    1.1392    0.6287    1.3880
    1.9215   -0.7829    2.1315
    2.9598    1.2678    2.9582
    1.3881    1.9115    3.5172
    0.9387   -0.5430    6.1399
    0.2397    0.8746    5.3081
   -0.9406   -1.2069    4.6186
    0.6157   -1.9427    4.1137
@<BUDE>CONF  14
    0.8449    2.9489   -4.3811
    0.6407    1.4147   -4.5596
   -0.8604    1.0085   -4.3654
    1.0031    1.0246   -6.0338
    1.5678    0.7176   -3.6605
    1.3424    0.1929   -2.4824
    2.4668   -0.4009   -2.0600
    3.4420   -0.2093   -3.1178
    2.8403    0.4440   -4.0175
    4.8753   -0.6592   -3.1999
    5.2435   -1.9904   -2.5031
    5.6971   -0.6472   -1.8892
    0.1359    0.1913   -1.6260
   -0.8643    0.7751   -2.0090
    0.1637   -0.3951   -0.4017
   -1.0302   -0.3860    0.4351
   -0.8694   -1.0337    1.8429
   -2.3061   -1.0381    2.4173
   -2.9133    0.1581    2.8141
   -4.2142    0.1478    3.3223
   -4.9439   -1.0402    3.4265
   -4.3329   -2.2334    3.0396
   -3.0261   -2.2326    2.5402
   -6.2548   -0.9859    3.9392
   -7.0997    0.1570    3.7175
   -0.0604   -0.2562    2.8225
    1.2772    0.1790    2.3051
    1.9994    1.1008    3.3202
    2.1255    0.4205    4.5796
    0.8510    0.0607    5.1288
    0.0880   -0.8789    4.1598
    1.8985    3.2185   -4.5647
    0.5703    3.2483   -3.3559
    0.2093    3.4983   -5.0912
   -1.1923    1.2449   -3.3404
   -1.4957    1.5531   -5.0838
   -1.0277   -0.0680   -4.5058
    0.8597   -0.0574   -6.1951
    2.0550    1.2794   -6.2473
    0.3580    1.5685   -6.7441
    2.6443   -0.9173   -1.1161
    5.4539   -0.4320   -4.1118
    4.4332   -2.5221   -1.9777
    6.0112   -2.6081   -2.9991
    5.1761   -0.3196   -0.9744
    6.7647   -0.3855   -1.9817
    1.0036   -0.8274   -0.0784
   -1.8341   -0.9332   -0.0906
   -1.3563    0.6561    0.6005
   -0.4644   -2.0551    1.7234
   -2.3798    1.1007    2.7317
   -4.6840    1.0769    3.6321
   -4.8480   -3.1846    3.1135
   -2.5665   -3.1722    2.2465
   -7.2544    0.2887    2.6347
   -8.0807    0.0008    4.1966
   -6.6197    1.0666    4.1159
    1.1739    0.7441    1.3609
    1.9562   -0.6675    2.1044
    2.9945    1.3832    2.9311
    1.4228    2.0269    3.4901
    0.9734   -0.4276    6.1128
    0.2744    0.9900    5.2810
   -0.9059   -1.0915    4.5915
    0.6504   -1.8273    4.0866
@<BUDE>CONF  15
    0.5063    3.9229   -3.7449
    0.3021    2.3887   -3.9234
   -1.1990    1.9825   -3.7292
    0.6645    1.9986   -5.3976
    1.2292    1.6916   -3.0243
    1.0038    1.1669   -1.8462
    2.1282    0.5731   -1.4238
    3.1034    0.7647   -2.4816
    2.5017    1.4180   -3.3813
    4.5367    0.3148   -2.5637
    5.5228    1.2210   -3.3381
    5.0634   -0.1204   -3.9517
   -0.2027    1.1653   -0.9898
   -1.2029    1.7491   -1.3728
   -0.1749    0.5789    0.2345
   -1.3688    0.5880    1.0713
   -1.2080   -0.0597    2.4791
   -0.8793   -1.5402    2.1728
   -1.8660   -2.3947    1.6695
   -1.5594   -3.7275    1.3857
   -0.2691   -4.2320    1.5738
    0.7109   -3.3808    2.0853
    0.4087   -2.0475    2.3826
   -0.0190   -5.5826    1.2618
   -1.0310   -6.5908    1.4305
   -2.4396   -0.0990    3.3160
   -2.2300   -0.6515    4.6768
   -2.0787    0.4821    5.7226
   -1.5060    1.6405    5.0941
   -2.4096    2.2525    4.1643
   -3.2014    1.1710    3.3848
    1.5599    4.1925   -3.9285
    0.2317    4.2223   -2.7197
   -0.1293    4.4723   -4.4550
   -1.5309    2.2189   -2.7042
   -1.8343    2.5271   -4.4476
   -1.3663    0.9060   -3.8696
    0.5211    0.9166   -5.5589
    1.7164    2.2534   -5.6111
    0.0194    2.5425   -6.1079
    2.3057    0.0567   -0.4799
    4.9738   -0.2311   -1.7101
    5.1105    2.1365   -3.7935
    6.5522    1.2746   -2.9451
    4.3569   -0.0627   -4.7962
    5.7943   -0.9465   -3.9623
    0.6650    0.1466    0.5578
   -2.1727    0.0408    0.5456
   -1.6949    1.6301    1.2367
   -0.3859    0.4482    3.0155
   -2.8747   -2.0306    1.4971
   -2.3268   -4.3908    0.9970
    1.7235   -3.7243    2.2643
    1.1847   -1.4009    2.7825
   -1.8948   -6.3477    0.7915
   -0.6373   -7.5762    1.1298
   -1.3685   -6.6177    2.4802
   -1.3128   -1.2664    4.7209
   -3.0648   -1.2885    5.0161
   -3.0642    0.7257    6.1594
   -1.4074    0.1734    6.5431
   -3.1082    2.9308    4.6873
   -1.8115    2.8584    3.4612
   -3.3989    1.5504    2.3668
   -4.1683    1.0170    3.8971
@<BUDE>CONF  16
    0.5456    4.0632   -3.8273
    0.3414    2.5290   -4.0058
   -1.1597    2.1228   -3.8116
    0.7038    2.1389   -5.4800
    1.2685    1.8319   -3.1067
    1.0431    1.3072   -1.9286
    2.1675    0.7134   -1.5062
    3.1427    0.9050   -2.5640
    2.5410    1.5583   -3.4637
    4.5760    0.4551   -2.6461
    4.8988   -0.7193   -3.5999
    4.9137   -0.9408   -2.0710
   -0.1634    1.3056   -1.0722
   -1.1636    1.8894   -1.4552
   -0.1356    0.7192    0.1521
   -1.3295    0.7283    0.9889
   -1.1687    0.0806    2.3967
   -0.8400   -1.3999    2.0904
   -1.8267   -2.2544    1.5871
   -1.5201   -3.5872    1.3033
   -0.2298   -4.0917    1.4914
    0.7502   -3.2405    2.0029
    0.4480   -1.9072    2.3002
    0.0203   -5.4423    1.1794
   -0.9917   -6.4505    1.3481
   -2.4003    0.0413    3.2336
   -2.1907   -0.5112    4.5944
   -2.0394    0.6224    5.6402
   -1.4667    1.7808    5.0117
   -2.3703    2.3928    4.0819
   -3.1621    1.3113    3.3024
    1.5992    4.3328   -4.0109
    0.2710    4.3626   -2.8021
   -0.0900    4.6126   -4.5374
   -1.4916    2.3592   -2.7866
   -1.7950    2.6674   -4.5300
   -1.3270    1.0463   -3.9520
    0.5604    1.0569   -5.6413
    1.7557    2.3937   -5.6935
    0.0587    2.6828   -6.1903
    2.3450    0.1970   -0.5623
    5.3774    1.2064   -2.5400
    4.0543   -1.1631   -4.1525
    5.8721   -0.6780   -4.1175
    4.0791   -1.5230   -1.6466
    5.8990   -1.0467   -1.5865
    0.7043    0.2869    0.4754
   -2.1334    0.1811    0.4632
   -1.6556    1.7704    1.1543
   -0.3466    0.5885    2.9331
   -2.8354   -1.8903    1.4147
   -2.2875   -4.2505    0.9146
    1.7628   -3.5840    2.1819
    1.2240   -1.2606    2.7001
   -1.8555   -6.2074    0.7091
   -0.5980   -7.4359    1.0474
   -1.3292   -6.4774    2.3978
   -1.2735   -1.1261    4.6385
   -3.0255   -1.1482    4.9337
   -3.0249    0.8660    6.0770
   -1.3681    0.3137    6.4607
   -3.0689    3.0711    4.6049
   -1.7722    2.9987    3.3788
   -3.3596    1.6907    2.2844
   -4.1290    1.1573    3.8147
@<BUDE>CONF  17
    0.4865    3.8900   -3.9103
    0.2823    2.3558   -4.0888
   -1.2188    1.9496   -3.8946
    0.6447    1.9657   -5.5630
    1.2094    1.6587   -3.1897
    0.9840    1.1340   -2.0116
    2.1084    0.5402   -1.5892
    3.0836    0.7318   -2.6470
    2.4819    1.3851   -3.5467
    4.5169    0.2819   -2.7291
    5.3659    0.3742   -1.4392
    5.6089    1.3697   -2.5953
   -0.2225    1.1324   -1.1552
   -1.2227    1.7162   -1.5382
   -0.1947    0.5460    0.0691
   -1.3886    0.5551    0.9059
   -1.2278   -0.0926    2.3137
   -0.8991   -1.5731    2.0074
   -1.8858   -2.4276    1.5041
   -1.5792   -3.7604    1.2203
   -0.2889   -4.2649    1.4084
    0.6911   -3.4137    1.9199
    0.3889   -2.0804    2.2172
   -0.0388   -5.6155    1.0964
   -1.0508   -6.6237    1.2651
   -2.4594   -0.1319    3.1506
   -2.2498   -0.6844    4.5114
   -2.0985    0.4492    5.5572
   -1.5258    1.6076    4.9287
   -2.4294    2.2196    3.9989
   -3.2212    1.1381    3.2194
    1.5401    4.1596   -4.0939
    0.2119    4.1894   -2.8851
   -0.1491    4.4394   -4.6204
   -1.5507    2.1860   -2.8696
   -1.8541    2.4942   -4.6130
   -1.3861    0.8731   -4.0350
    0.5013    0.8837   -5.7243
    1.6966    2.2205   -5.7765
   -0.0004    2.5096   -6.2733
    2.2859    0.0238   -0.6453
    4.7755   -0.5541   -3.4014
    4.8701    0.7764   -0.5403
    6.1150   -0.4211   -1.2867
    5.2669    2.4058   -2.4370
    6.5202    1.2271   -3.2002
    0.6452    0.1137    0.3924
   -2.1925    0.0079    0.3802
   -1.7147    1.5972    1.0713
   -0.4057    0.4153    2.8501
   -2.8945   -2.0635    1.3317
   -2.3466   -4.4237    0.8316
    1.7037   -3.7572    2.0989
    1.1649   -1.4338    2.6171
   -1.9146   -6.3806    0.6261
   -0.6571   -7.6091    0.9644
   -1.3883   -6.6506    2.3148
   -1.3326   -1.2993    4.5555
   -3.0846   -1.3214    4.8507
   -3.0840    0.6928    5.9940
   -1.4272    0.1405    6.3777
   -3.1280    2.8979    4.5219
   -1.8313    2.8255    3.2958
   -3.4187    1.5175    2.2014
   -4.1881    0.9841    3.7317
@<BUDE>CONF  18
    0.5212    4.0053   -3.9374
    0.3170    2.4711   -4.1159
   -1.1841    2.0649   -3.9217
    0.6794    2.0810   -5.5901
    1.2441    1.7740   -3.2168
    1.0187    1.2493   -2.0387
    2.1431    0.6555   -1.6163
    3.1183    0.8471   -2.6741
    2.5166    1.5004   -3.5738
    4.5516    0.3972   -2.7562
    4.9198   -0.9340   -2.0594
    5.3734    0.4092   -1.4455
   -0.1878    1.2477   -1.1823
   -1.1880    1.8315   -1.5653
   -0.1600    0.6613    0.0420
   -1.3539    0.6704    0.8788
   -1.1931    0.0227    2.2866
   -0.8644   -1.4578    1.9803
   -1.8511   -2.3123    1.4770
   -1.5445   -3.6451    1.1932
   -0.2542   -4.1496    1.3813
    0.7258   -3.2984    1.8928
    0.4236   -1.9651    2.1901
   -0.0041   -5.5002    1.0693
   -1.0161   -6.5084    1.2380
   -2.4247   -0.0166    3.1235
   -2.2151   -0.5691    4.4843
   -2.0638    0.5645    5.5301
   -1.4911    1.7229    4.9016
   -2.3947    2.3349    3.9718
   -3.1865    1.2534    3.1923
    1.5748    4.2749   -4.1210
    0.2466    4.3047   -2.9122
   -0.1144    4.5547   -4.6475
   -1.5160    2.3013   -2.8967
   -1.8194    2.6095   -4.6401
   -1.3514    0.9884   -4.0621
    0.5360    0.9990   -5.7514
    1.7313    2.3358   -5.8036
    0.0343    2.6249   -6.3004
    2.3206    0.1391   -0.6724
    5.1302    0.6244   -3.6681
    4.1095   -1.4657   -1.5340
    5.6875   -1.5517   -2.5554
    4.8524    0.7368   -0.5307
    6.4410    0.6709   -1.5380
    0.6799    0.2290    0.3653
   -2.1578    0.1232    0.3531
   -1.6800    1.7125    1.0442
   -0.3710    0.5306    2.8230
   -2.8598   -1.9482    1.3046
   -2.3119   -4.3084    0.8045
    1.7384   -3.6419    2.0718
    1.1996   -1.3185    2.5900
   -1.8799   -6.2653    0.5990
   -0.6224   -7.4938    0.9373
   -1.3536   -6.5353    2.2877
   -1.2979   -1.1840    4.5284
   -3.0499   -1.2061    4.8236
   -3.0493    0.8081    5.9669
   -1.3925    0.2558    6.3506
   -3.0933    3.0132    4.4948
   -1.7966    2.9408    3.2687
   -3.3840    1.6328    2.1743
   -4.1534    1.0994    3.7046
@<BUDE>CONF  19
    0.8050    3.1104   -4.0720
    0.6008    1.5762   -4.2505
   -0.9003    1.1700   -4.0563
    0.9632    1.1861   -5.7247
    1.5279    0.8791   -3.3514
    1.3025    0.3544   -2.1733
    2.4269   -0.2394   -1.7509
    3.4021   -0.0478   -2.8087
    2.8004    0.6055   -3.7084
    4.8354   -0.4977   -2.8908
    5.8215    0.4085   -3.6652
    5.3621   -0.9329   -4.2788
    0.0960    0.3528   -1.3169
   -0.9042    0.9366   -1.6999
    0.1238   -0.2336   -0.0926
   -1.0701   -0.2245    0.7442
   -0.9093   -0.8722    2.1520
   -2.3460   -0.8766    2.7264
   -2.9532    0.3196    3.1232
   -4.2541    0.3093    3.6314
   -4.9838   -0.8787    3.7356
   -4.3728   -2.0719    3.3487
   -3.0660   -2.0711    2.8493
   -6.2947   -0.8244    4.2483
   -7.1396    0.3185    4.0266
   -0.1003   -0.0947    3.1316
    0.0340   -0.8145    4.4320
    1.0344   -1.9933    4.3281
    2.3073   -1.5031    3.8760
    2.2163   -0.8660    2.5948
    1.2360    0.3338    2.6535
    1.8586    3.3800   -4.2556
    0.5304    3.4098   -3.0468
    0.1694    3.6598   -4.7821
   -1.2322    1.4064   -3.0313
   -1.5356    1.7146   -4.7747
   -1.0676    0.0935   -4.1967
    0.8198    0.1041   -5.8860
    2.0151    1.4409   -5.9382
    0.3181    1.7300   -6.4350
    2.6044   -0.7558   -0.8070
    5.2725   -1.0436   -2.0372
    5.4092    1.3240   -4.1206
    6.8509    0.4621   -3.2722
    4.6556   -0.8752   -5.1233
    6.0930   -1.7590   -4.2894
    0.9637   -0.6659    0.2307
   -1.8740   -0.7717    0.2185
   -1.3962    0.8176    0.9096
   -0.5043   -1.8936    2.0325
   -2.4197    1.2622    3.0408
   -4.7239    1.2384    3.9412
   -4.8879   -3.0231    3.4226
   -2.6064   -3.0107    2.5556
   -7.2943    0.4502    2.9438
   -8.1206    0.1623    4.5057
   -6.6596    1.2281    4.4250
   -0.9368   -1.2323    4.7549
    0.3938   -0.1621    5.2461
    1.1368   -2.4884    5.3108
    0.6819   -2.7456    3.6009
    3.2119   -0.5262    2.2559
    1.8492   -1.6145    1.8708
    1.1555    0.7673    1.6412
    1.6650    1.0953    3.3298
@<BUDE>CONF  20
    0.8443    3.2507   -4.1545
    0.6401    1.7165   -4.3330
   -0.8610    1.3103   -4.1388
    1.0025    1.3264   -5.8072
    1.5672    1.0194   -3.4339
    1.3418    0.4947   -2.2558
    2.4662   -0.0991   -1.8334
    3.4414    0.0925   -2.8912
    2.8397    0.7458   -3.7909
    4.8747   -0.3574   -2.9733
    5.1975   -1.5318   -3.9271
    5.2124   -1.7533   -2.3982
    0.1353    0.4931   -1.3994
   -0.8649    1.0769   -1.7824
    0.1631   -0.0933   -0.1751
   -1.0308   -0.0842    0.6617
   -0.8700   -0.7319    2.0695
   -2.3067   -0.7363    2.6439
   -2.9139    0.4599    3.0407
   -4.2148    0.4496    3.5489
   -4.9445   -0.7384    3.6531
   -4.3335   -1.9316    3.2662
   -3.0267   -1.9308    2.7668
   -6.2554   -0.6841    4.1658
   -7.1003    0.4588    3.9441
   -0.0610    0.0456    3.0491
    0.0733   -0.6742    4.3495
    1.0737   -1.8530    4.2456
    2.3466   -1.3628    3.7935
    2.2556   -0.7257    2.5123
    1.2753    0.4741    2.5710
    1.8979    3.5203   -4.3381
    0.5697    3.5501   -3.1293
    0.2087    3.8001   -4.8646
   -1.1929    1.5467   -3.1138
   -1.4963    1.8549   -4.8572
   -1.0283    0.2338   -4.2792
    0.8591    0.2444   -5.9685
    2.0544    1.5812   -6.0207
    0.3574    1.8703   -6.5175
    2.6437   -0.6155   -0.8895
    5.6761    0.3939   -2.8672
    4.3530   -1.9756   -4.4797
    6.1708   -1.4905   -4.4447
    4.3778   -2.3355   -1.9738
    6.1977   -1.8592   -1.9137
    1.0030   -0.5256    0.1482
   -1.8347   -0.6314    0.1360
   -1.3569    0.9579    0.8271
   -0.4650   -1.7533    1.9500
   -2.3804    1.4025    2.9583
   -4.6846    1.3787    3.8587
   -4.8486   -2.8828    3.3401
   -2.5671   -2.8704    2.4731
   -7.2550    0.5905    2.8613
   -8.0813    0.3026    4.4232
   -6.6203    1.3684    4.3425
   -0.8975   -1.0920    4.6724
    0.4331   -0.0218    5.1636
    1.1761   -2.3481    5.2283
    0.7212   -2.6053    3.5184
    3.2512   -0.3859    2.1734
    1.8885   -1.4742    1.7883
    1.1948    0.9076    1.5587
    1.7043    1.2356    3.2473
@<BUDE>CONF  21
    0.7852    3.0776   -4.2375
    0.5810    1.5434   -4.4160
   -0.9201    1.1372   -4.2218
    0.9434    1.1533   -5.8902
    1.5081    0.8463   -3.5169
    1.2827    0.3216   -2.3388
    2.4071   -0.2722   -1.9164
    3.3823   -0.0806   -2.9742
    2.7806    0.5727   -3.8739
    4.8156   -0.5305   -3.0563
    5.6646   -0.4382   -1.7664
    5.9076    0.5573   -2.9225
    0.0762    0.3200   -1.4824
   -0.9240    0.9038   -1.8654
    0.1040   -0.2664   -0.2581
   -1.0899   -0.2573    0.5787
   -0.9291   -0.9050    1.9865
   -2.3658   -0.9094    2.5609
   -2.9730    0.2868    2.9577
   -4.2739    0.2765    3.4659
   -5.0036   -0.9115    3.5701
   -4.3926   -2.1047    3.1832
   -3.0858   -2.1039    2.6838
   -6.3145   -0.8572    4.0828
   -7.1594    0.2857    3.8611
   -0.1201   -0.1275    2.9661
    0.0142   -0.8473    4.2665
    1.0146   -2.0261    4.1626
    2.2875   -1.5359    3.7105
    2.1965   -0.8988    2.4293
    1.2162    0.3010    2.4880
    1.8388    3.3472   -4.4211
    0.5106    3.3770   -3.2123
    0.1496    3.6270   -4.9476
   -1.2520    1.3736   -3.1968
   -1.5554    1.6818   -4.9402
   -1.0874    0.0607   -4.3622
    0.8000    0.0713   -6.0515
    1.9953    1.4081   -6.1037
    0.2983    1.6972   -6.6005
    2.5846   -0.7886   -0.9725
    5.0742   -1.3665   -3.7286
    5.1688   -0.0360   -0.8675
    6.4137   -1.2335   -1.6139
    5.5656    1.5934   -2.7642
    6.8189    0.4147   -3.5274
    0.9439   -0.6987    0.0652
   -1.8938   -0.8045    0.0530
   -1.4160    0.7848    0.7441
   -0.5241   -1.9264    1.8670
   -2.4395    1.2294    2.8753
   -4.7437    1.2056    3.7757
   -4.9077   -3.0559    3.2571
   -2.6262   -3.0435    2.3901
   -7.3141    0.4174    2.7783
   -8.1404    0.1295    4.3402
   -6.6794    1.1953    4.2595
   -0.9566   -1.2651    4.5894
    0.3740   -0.1949    5.0806
    1.1170   -2.5212    5.1453
    0.6621   -2.7784    3.4354
    3.1921   -0.5590    2.0904
    1.8294   -1.6473    1.7053
    1.1357    0.7345    1.4757
    1.6452    1.0625    3.1643
@<BUDE>CONF  22
    0.8199    3.1929   -4.2645
    0.6157    1.6587   -4.4430
   -0.8854    1.2525   -4.2488
    0.9781    1.2686   -5.9172
    1.5428    0.9616   -3.5439
    1.3174    0.4369   -2.3658
    2.4418   -0.1569   -1.9434
    3.4170    0.0347   -3.0012
    2.8153    0.6880   -3.9009
    4.8503   -0.4152   -3.0833
    5.2185   -1.7464   -2.3865
    5.6721   -0.4032   -1.7726
    0.1109    0.4353   -1.5094
   -0.8893    1.0191   -1.8924
    0.1387   -0.1511   -0.2851
   -1.0552   -0.1420    0.5517
   -0.8944   -0.7897    1.9595
   -2.3311   -0.7941    2.5339
   -2.9383    0.4021    2.9307
   -4.2392    0.3918    3.4389
   -4.9689   -0.7962    3.5431
   -4.3579   -1.9894    3.1562
   -3.0511   -1.9886    2.6568
   -6.2798   -0.7419    4.0558
   -7.1247    0.4010    3.8341
   -0.0854   -0.0122    2.9391
    0.0489   -0.7320    4.2395
    1.0493   -1.9108    4.1356
    2.3222   -1.4206    3.6835
    2.2312   -0.7835    2.4023
    1.2509    0.4163    2.4610
    1.8735    3.4625   -4.4481
    0.5453    3.4923   -3.2393
    0.1843    3.7423   -4.9746
   -1.2173    1.4889   -3.2238
   -1.5207    1.7971   -4.9672
   -1.0527    0.1760   -4.3892
    0.8347    0.1866   -6.0785
    2.0300    1.5234   -6.1307
    0.3330    1.8125   -6.6275
    2.6193   -0.6733   -0.9995
    5.4289   -0.1880   -3.9952
    4.4082   -2.2781   -1.8611
    5.9862   -2.3641   -2.8825
    5.1511   -0.0756   -0.8578
    6.7397   -0.1415   -1.8651
    0.9786   -0.5834    0.0382
   -1.8591   -0.6892    0.0260
   -1.3813    0.9001    0.7171
   -0.4894   -1.8111    1.8400
   -2.4048    1.3447    2.8483
   -4.7090    1.3209    3.7487
   -4.8730   -2.9406    3.2301
   -2.5915   -2.9282    2.3631
   -7.2794    0.5327    2.7513
   -8.1057    0.2448    4.3132
   -6.6447    1.3106    4.2325
   -0.9219   -1.1498    4.5624
    0.4087   -0.0796    5.0536
    1.1517   -2.4059    5.1183
    0.6968   -2.6631    3.4084
    3.2268   -0.4437    2.0634
    1.8641   -1.5320    1.6783
    1.1704    0.8498    1.4487
    1.6799    1.1778    3.1373
@<BUDE>CONF  23
    0.7544    1.5632   -3.4317
    0.5502    0.0290   -3.6102
   -0.9509   -0.3772   -3.4160
    0.9126   -0.3611   -5.0844
    1.4773   -0.6681   -2.7111
    1.2519   -1.1928   -1.5330
    2.3763   -1.7866   -1.1106
    3.3515   -1.5950   -2.1684
    2.7498   -0.9417   -3.0681
    4.7848   -2.0449   -2.2505
    5.6338   -1.9526   -0.9606
    5.8768   -0.9571   -2.1167
    0.0454   -1.1944   -0.6766
   -0.9548   -0.6106   -1.0596
    0.0732   -1.7808    0.5477
   -1.1207   -1.7717    1.3845
   -1.9353   -0.4437    1.3793
   -0.9561    0.5964    1.9736
   -0.6304    0.5652    3.3338
    0.2621    1.5011    3.8614
    0.8637    2.4685    3.0509
    0.5298    2.5041    1.6966
   -0.3720    1.5773    1.1629
    1.7620    3.3801    3.6391
    1.5932    3.8299    4.9950
   -3.1261   -0.4134    2.2735
   -3.8647    0.8789    2.1663
   -4.6765    0.9617    0.8489
   -5.5771   -0.1553    0.7699
   -4.8847   -1.4103    0.8026
   -4.0689   -1.5463    2.1141
    1.8080    1.8328   -3.6153
    0.4798    1.8626   -2.4065
    0.1188    2.1126   -4.1418
   -1.2828   -0.1408   -2.3910
   -1.5862    0.1674   -4.1344
   -1.1182   -1.4537   -3.5564
    0.7692   -1.4431   -5.2457
    1.9645   -0.1063   -5.2979
    0.2675    0.1828   -5.7947
    2.5538   -2.3030   -0.1667
    5.0434   -2.8809   -2.9228
    5.1380   -1.5504   -0.0617
    6.3829   -2.7479   -0.8081
    5.5348    0.0790   -1.9584
    6.7881   -1.0997   -2.7216
    0.9131   -2.2131    0.8710
   -0.8210   -1.9715    2.4296
   -1.8099   -2.5681    1.0520
   -2.2202   -0.2021    0.3390
   -1.0681   -0.1830    3.9882
    0.5127    1.4774    4.9181
    0.9556    3.2425    1.0266
   -0.6213    1.6227    0.1065
    1.6442    2.9633    5.6733
    2.3984    4.5343    5.2630
    0.6080    4.3111    5.1152
   -3.1668    1.7357    2.1789
   -4.5810    1.0312    2.9919
   -5.2360    1.9139    0.8103
   -4.0075    0.9219   -0.0286
   -5.5957   -2.2513    0.7092
   -4.2045   -1.4434   -0.0666
   -3.5135   -2.5001    2.0812
   -4.7802   -1.5819    2.9591
@<BUDE>CONF  24
    0.7004    1.6568   -3.2476
    0.4962    0.1226   -3.4261
   -1.0049   -0.2836   -3.2319
    0.8586   -0.2675   -4.9003
    1.4233   -0.5745   -2.5270
    1.1979   -1.0992   -1.3489
    2.3223   -1.6930   -0.9265
    3.2975   -1.5014   -1.9843
    2.6958   -0.8481   -2.8840
    4.7308   -1.9513   -2.0664
    5.7169   -1.0451   -2.8408
    5.2575   -2.3865   -3.4544
   -0.0086   -1.1008   -0.4925
   -1.0088   -0.5170   -0.8755
    0.0192   -1.6872    0.7318
   -1.1747   -1.6781    1.5686
   -1.9893   -0.3501    1.5634
   -1.0101    0.6900    2.1577
   -0.6844    0.6588    3.5179
    0.2081    1.5947    4.0455
    0.8097    2.5621    3.2350
    0.4758    2.5977    1.8807
   -0.4260    1.6709    1.3470
    1.7080    3.4737    3.8232
    2.5416    3.0948    4.9326
   -3.1801   -0.3198    2.4576
   -3.9187    0.9725    2.3504
   -4.7305    1.0553    1.0330
   -5.6311   -0.0617    0.9540
   -4.9387   -1.3167    0.9867
   -4.1229   -1.4527    2.2982
    1.7540    1.9264   -3.4312
    0.4258    1.9562   -2.2224
    0.0648    2.2062   -3.9577
   -1.3368   -0.0472   -2.2069
   -1.6402    0.2610   -3.9503
   -1.1722   -1.3601   -3.3723
    0.7152   -1.3495   -5.0616
    1.9105   -0.0127   -5.1138
    0.2135    0.2764   -5.6106
    2.4998   -2.2094    0.0174
    5.1679   -2.4972   -1.2128
    5.3046   -0.1296   -3.2962
    6.7463   -0.9915   -2.4478
    4.5510   -2.3288   -4.2989
    5.9884   -3.2126   -3.4650
    0.8591   -2.1195    1.0551
   -0.8750   -1.8779    2.6137
   -1.8639   -2.4745    1.2361
   -2.2742   -0.1085    0.5231
   -1.1221   -0.0894    4.1723
    0.4587    1.5710    5.1022
    0.9016    3.3361    1.2107
   -0.6753    1.7163    0.2906
    3.1995    2.2663    4.6252
    3.1700    3.9467    5.2421
    1.9184    2.7527    5.7760
   -3.2208    1.8293    2.3630
   -4.6350    1.1248    3.1760
   -5.2900    2.0075    0.9944
   -4.0615    1.0155    0.1555
   -5.6497   -2.1577    0.8933
   -4.2585   -1.3498    0.1175
   -3.5675   -2.4065    2.2653
   -4.8342   -1.4883    3.1432
@<BUDE>CONF  25
    0.7397    1.7971   -3.3301
    0.5355    0.2629   -3.5086
   -0.9656   -0.1433   -3.3144
    0.8979   -0.1272   -4.9828
    1.4626   -0.4342   -2.6095
    1.2372   -0.9589   -1.4314
    2.3616   -1.5527   -1.0090
    3.3368   -1.3611   -2.0668
    2.7351   -0.7078   -2.9665
    4.7701   -1.8110   -2.1489
    5.0929   -2.9854   -3.1027
    5.1078   -3.2069   -1.5738
    0.0307   -0.9605   -0.5750
   -0.9695   -0.3767   -0.9580
    0.0585   -1.5469    0.6493
   -1.1354   -1.5378    1.4861
   -1.9500   -0.2098    1.4809
   -0.9708    0.8303    2.0752
   -0.6451    0.7991    3.4354
    0.2474    1.7350    3.9630
    0.8490    2.7024    3.1525
    0.5151    2.7380    1.7982
   -0.3867    1.8112    1.2645
    1.7473    3.6140    3.7407
    2.5809    3.2351    4.8501
   -3.1408   -0.1795    2.3751
   -3.8794    1.1128    2.2679
   -4.6912    1.1956    0.9505
   -5.5918    0.0786    0.8715
   -4.8994   -1.1764    0.9042
   -4.0836   -1.3124    2.2157
    1.7933    2.0667   -3.5137
    0.4651    2.0965   -2.3049
    0.1041    2.3465   -4.0402
   -1.2975    0.0931   -2.2894
   -1.6009    0.4013   -4.0328
   -1.1329   -1.2198   -3.4548
    0.7545   -1.2092   -5.1441
    1.9498    0.1276   -5.1963
    0.2528    0.4167   -5.6931
    2.5391   -2.0691   -0.0651
    5.5715   -1.0597   -2.0428
    4.2484   -3.4292   -3.6553
    6.0662   -2.9441   -3.6203
    4.2732   -3.7891   -1.1494
    6.0931   -3.3128   -1.0893
    0.8984   -1.9792    0.9726
   -0.8357   -1.7376    2.5312
   -1.8246   -2.3342    1.1536
   -2.2349    0.0318    0.4406
   -1.0828    0.0509    4.0898
    0.4980    1.7113    5.0197
    0.9409    3.4764    1.1282
   -0.6360    1.8566    0.2081
    3.2388    2.4066    4.5427
    3.2093    4.0870    5.1596
    1.9577    2.8930    5.6935
   -3.1815    1.9696    2.2805
   -4.5957    1.2651    3.0935
   -5.2507    2.1478    0.9119
   -4.0222    1.1558    0.0730
   -5.6104   -2.0174    0.8108
   -4.2192   -1.2095    0.0350
   -3.5282   -2.2662    2.1828
   -4.7949   -1.3480    3.0607
@<BUDE>CONF  26
    0.7891    1.6785   -3.4587
    0.5849    0.1443   -3.6372
   -0.9162   -0.2619   -3.4430
    0.9473   -0.2458   -5.1114
    1.5120   -0.5528   -2.7381
    1.2866   -1.0775   -1.5600
    2.4110   -1.6713   -1.1376
    3.3862   -1.4797   -2.1954
    2.7845   -0.8264   -3.0951
    4.8195   -1.9296   -2.2775
    5.1877   -3.2608   -1.5807
    5.6413   -1.9176   -0.9668
    0.0801   -1.0791   -0.7036
   -0.9201   -0.4953   -1.0866
    0.1079   -1.6655    0.5207
   -1.0860   -1.6564    1.3575
   -1.9006   -0.3284    1.3523
   -0.9214    0.7117    1.9466
   -0.5957    0.6805    3.3068
    0.2968    1.6164    3.8344
    0.8984    2.5838    3.0239
    0.5645    2.6194    1.6696
   -0.3373    1.6926    1.1359
    1.7967    3.4954    3.6121
    1.6279    3.9452    4.9680
   -3.0914   -0.2981    2.2465
   -3.8300    0.9942    2.1393
   -4.6418    1.0770    0.8219
   -5.5424   -0.0400    0.7429
   -4.8500   -1.2950    0.7756
   -4.0342   -1.4310    2.0871
    1.8427    1.9481   -3.6423
    0.5145    1.9779   -2.4335
    0.1535    2.2279   -4.1688
   -1.2481   -0.0255   -2.4180
   -1.5515    0.2827   -4.1614
   -1.0835   -1.3384   -3.5834
    0.8039   -1.3278   -5.2727
    1.9992    0.0090   -5.3249
    0.3022    0.2981   -5.8217
    2.5885   -2.1877   -0.1937
    5.3981   -1.7024   -3.1894
    4.3774   -3.7925   -1.0553
    5.9554   -3.8785   -2.0767
    5.1203   -1.5900   -0.0520
    6.7089   -1.6559   -1.0593
    0.9478   -2.0978    0.8440
   -0.7863   -1.8562    2.4026
   -1.7752   -2.4528    1.0250
   -2.1855   -0.0868    0.3120
   -1.0334   -0.0677    3.9612
    0.5474    1.5927    4.8911
    0.9903    3.3578    0.9996
   -0.5866    1.7380    0.0795
    1.6789    3.0786    5.6463
    2.4331    4.6496    5.2360
    0.6427    4.4264    5.0882
   -3.1321    1.8510    2.1519
   -4.5463    1.1465    2.9649
   -5.2013    2.0292    0.7833
   -3.9728    1.0372   -0.0556
   -5.5610   -2.1360    0.6822
   -4.1698   -1.3281   -0.0936
   -3.4788   -2.3848    2.0542
   -4.7455   -1.4666    2.9321
@<BUDE>CONF  27
    1.8531    3.6091   -2.8985
    1.6489    2.0749   -3.0770
    0.1478    1.6687   -2.8828
    2.0113    1.6848   -4.5512
    2.5760    1.3778   -2.1779
    2.3506    0.8531   -0.9998
    3.4750    0.2593   -0.5774
    4.4502    0.4509   -1.6352
    3.8485    1.1042   -2.5349
    5.8835    0.0010   -1.7173
    6.2063   -1.1734   -2.6711
    6.2212   -1.3949   -1.1422
    1.1441    0.8515   -0.1434
    0.1439    1.4353   -0.5264
    1.1719    0.2651    1.0809
   -0.0220    0.2742    1.9177
   -1.3667    0.0195    1.1733
   -2.4440    0.2590    2.2577
   -2.6144   -0.6577    3.3006
   -3.5822   -0.4298    4.2817
   -4.3818    0.7168    4.2607
   -4.2172    1.6247    3.2141
   -3.2578    1.3979    2.2216
   -5.3350    0.8953    5.2823
   -6.0007   -0.2254    5.8906
   -1.5901   -1.3762    0.7035
   -2.9353   -1.5840    0.1623
   -2.9841   -2.8704   -0.7003
   -2.0675   -3.8401   -0.1668
   -0.7003   -3.4553   -0.3622
   -0.5366   -1.9237   -0.1844
    2.9067    3.8787   -3.0821
    1.5785    3.9085   -1.8733
    1.2175    4.1585   -3.6086
   -0.1841    1.9051   -1.8578
   -0.4875    2.2133   -3.6012
   -0.0195    0.5922   -3.0232
    1.8679    0.6028   -4.7125
    3.0632    1.9396   -4.7647
    1.3662    2.2287   -5.2615
    3.6525   -0.2571    0.3665
    6.6849    0.7523   -1.6112
    5.3618   -1.6172   -3.2237
    7.1796   -1.1321   -3.1887
    5.3866   -1.9771   -0.7178
    7.2065   -1.5008   -0.6577
    2.0118   -0.1672    1.4042
   -0.0994    1.2599    2.4119
    0.0650   -0.5081    2.6924
   -1.4528    0.7338    0.3343
   -1.9990   -1.5510    3.3552
   -3.7151   -1.1433    5.0899
   -4.8209    2.5223    3.1416
   -3.1462    2.1152    1.4133
   -5.2510   -0.8778    6.3663
   -6.7029    0.1263    6.6650
   -6.5374   -0.8096    5.1243
   -3.2451   -0.7417   -0.4826
   -3.7062   -1.6952    0.9441
   -4.0120   -3.2758   -0.7145
   -2.6856   -2.6573   -1.7417
   -0.0389   -3.9918    0.3423
   -0.4108   -3.7463   -1.3873
   -0.5955   -1.4495   -1.1798
    0.4662   -1.7321    0.2384
@<BUDE>CONF  28
    0.5882    4.0093   -3.7662
    0.3840    2.4751   -3.9447
   -1.1171    2.0689   -3.7505
    0.7464    2.0850   -5.4189
    1.3111    1.7780   -3.0456
    1.0857    1.2533   -1.8675
    2.2101    0.6595   -1.4451
    3.1853    0.8511   -2.5029
    2.5836    1.5044   -3.4026
    4.6186    0.4012   -2.5850
    5.6047    1.3074   -3.3594
    5.1453   -0.0340   -3.9730
   -0.1208    1.2517   -1.0111
   -1.1210    1.8355   -1.3941
   -0.0930    0.6653    0.2132
   -1.2869    0.6744    1.0500
   -1.1261    0.0267    2.4578
   -0.7974   -1.4538    2.1515
   -1.7841   -2.3083    1.6482
   -1.4775   -3.6411    1.3644
   -0.1872   -4.1456    1.5525
    0.7928   -3.2944    2.0640
    0.4906   -1.9611    2.3613
    0.0629   -5.4962    1.2405
   -0.9491   -6.5044    1.4092
   -2.3577   -0.0126    3.2947
   -2.1071   -0.6330    4.4600
   -3.3116   -0.4618    5.4198
   -3.3609    0.8953    5.8896
   -2.8195    1.8172    4.9344
   -3.0337    1.2921    3.4913
    1.6418    4.2789   -3.9498
    0.3136    4.3087   -2.7410
   -0.0474    4.5587   -4.4763
   -1.4490    2.3053   -2.7255
   -1.7524    2.6135   -4.4689
   -1.2844    0.9924   -3.8909
    0.6030    1.0030   -5.5802
    1.7983    2.3398   -5.6324
    0.1013    2.6289   -6.1292
    2.3876    0.1431   -0.5012
    5.0557   -0.1447   -1.7314
    5.1924    2.2229   -3.8148
    6.6341    1.3610   -2.9664
    4.4388    0.0237   -4.8175
    5.8762   -0.8601   -3.9836
    0.7469    0.2330    0.5365
   -2.0908    0.1272    0.5243
   -1.6130    1.7165    1.2154
   -0.3040    0.5346    2.9942
   -2.7928   -1.9442    1.4758
   -2.2449   -4.3044    0.9757
    1.8054   -3.6379    2.2430
    1.2666   -1.3145    2.7612
   -1.8129   -6.2613    0.7702
   -0.5554   -7.4898    1.1085
   -1.2866   -6.5313    2.4589
   -1.2193   -0.2116    4.9655
   -1.9360   -1.7180    4.3540
   -4.2495   -0.7254    4.8982
   -3.2114   -1.1226    6.2987
   -3.2826    2.8144    5.0479
   -1.7393    1.9200    5.1390
   -2.6294    2.0389    2.7856
   -4.1210    1.1965    3.3183
@<BUDE>CONF  29
    0.6275    4.1496   -3.8486
    0.4233    2.6154   -4.0271
   -1.0778    2.2092   -3.8329
    0.7857    2.2253   -5.5013
    1.3504    1.9183   -3.1280
    1.1250    1.3936   -1.9499
    2.2494    0.7998   -1.5275
    3.2246    0.9914   -2.5853
    2.6229    1.6447   -3.4850
    4.6579    0.5415   -2.6674
    4.9807   -0.6329   -3.6212
    4.9956   -0.8544   -2.0923
   -0.0815    1.3920   -1.0935
   -1.0817    1.9758   -1.4765
   -0.0537    0.8056    0.1308
   -1.2476    0.8147    0.9676
   -1.0868    0.1670    2.3754
   -0.7581   -1.3135    2.0691
   -1.7448   -2.1680    1.5658
   -1.4382   -3.5008    1.2820
   -0.1479   -4.0053    1.4701
    0.8321   -3.1541    1.9816
    0.5299   -1.8208    2.2789
    0.1022   -5.3559    1.1581
   -0.9098   -6.3641    1.3268
   -2.3184    0.1277    3.2123
   -2.0678   -0.4927    4.3776
   -3.2723   -0.3215    5.3374
   -3.3216    1.0356    5.8072
   -2.7802    1.9575    4.8520
   -2.9944    1.4324    3.4089
    1.6811    4.4192   -4.0322
    0.3529    4.4490   -2.8234
   -0.0081    4.6990   -4.5587
   -1.4097    2.4456   -2.8079
   -1.7131    2.7538   -4.5513
   -1.2451    1.1327   -3.9733
    0.6423    1.1433   -5.6626
    1.8376    2.4801   -5.7148
    0.1406    2.7692   -6.2116
    2.4269    0.2834   -0.5836
    5.4593    1.2928   -2.5613
    4.1362   -1.0767   -4.1738
    5.9540   -0.5916   -4.1388
    4.1610   -1.4366   -1.6679
    5.9809   -0.9603   -1.6078
    0.7862    0.3733    0.4541
   -2.0515    0.2675    0.4419
   -1.5737    1.8568    1.1330
   -0.2647    0.6749    2.9118
   -2.7535   -1.8039    1.3934
   -2.2056   -4.1641    0.8933
    1.8447   -3.4976    2.1606
    1.3059   -1.1742    2.6788
   -1.7736   -6.1210    0.6878
   -0.5161   -7.3495    1.0261
   -1.2473   -6.3910    2.3765
   -1.1800   -0.0713    4.8831
   -1.8967   -1.5777    4.2716
   -4.2102   -0.5851    4.8158
   -3.1721   -0.9823    6.2163
   -3.2433    2.9547    4.9655
   -1.7000    2.0603    5.0566
   -2.5901    2.1792    2.7032
   -4.0817    1.3368    3.2359
@<BUDE>CONF  30
    1.8079    3.2675   -2.7139
    1.6037    1.7333   -2.8924
    0.1026    1.3271   -2.6982
    1.9661    1.3432   -4.3666
    2.5308    1.0362   -1.9933
    2.3054    0.5115   -0.8152
    3.4298   -0.0823   -0.3928
    4.4050    0.1093   -1.4506
    3.8033    0.7626   -2.3503
    5.8383   -0.3406   -1.5327
    6.8244    0.5656   -2.3071
    6.3650   -0.7758   -2.9207
    1.0989    0.5099    0.0412
    0.0987    1.0937   -0.3418
    1.1267   -0.0765    1.2655
   -0.0672   -0.0674    2.1023
   -1.4119   -0.3221    1.3579
   -2.4892   -0.0826    2.4423
   -2.6596   -0.9993    3.4852
   -3.6274   -0.7714    4.4663
   -4.4270    0.3752    4.4453
   -4.2624    1.2831    3.3987
   -3.3030    1.0563    2.4062
   -5.3802    0.5537    5.4669
   -6.0459   -0.5670    6.0752
   -1.6353   -1.7178    0.8881
   -2.9065   -1.7984    0.1658
   -2.9066   -1.0468   -1.1894
   -1.5609   -0.9499   -1.6838
   -0.8060   -2.1426   -1.4318
   -0.5336   -2.3020    0.0863
    2.8615    3.5371   -2.8975
    1.5333    3.5669   -1.6887
    1.1723    3.8169   -3.4240
   -0.2293    1.5635   -1.6732
   -0.5327    1.8717   -3.4166
   -0.0647    0.2506   -2.8386
    1.8227    0.2612   -4.5279
    3.0180    1.5980   -4.5801
    1.3210    1.8871   -5.0769
    3.6073   -0.5987    0.5511
    6.2754   -0.8865   -0.6791
    6.4121    1.4811   -2.7625
    7.8538    0.6192   -1.9141
    5.6585   -0.7181   -3.7652
    7.0959   -1.6019   -2.9313
    1.9666   -0.5088    1.5888
   -0.1446    0.9183    2.5965
    0.0198   -0.8497    2.8770
   -1.4980    0.3922    0.5189
   -2.0442   -1.8926    3.5398
   -3.7603   -1.4849    5.2745
   -4.8661    2.1807    3.3262
   -3.1914    1.7736    1.5979
   -5.2962   -1.2194    6.5509
   -6.7481   -0.2153    6.8496
   -6.5826   -1.1512    5.3089
   -3.7155   -1.3672    0.7830
   -3.1848   -2.8443   -0.0500
   -3.5486   -1.5783   -1.9150
   -3.2999   -0.0219   -1.0707
   -1.3390   -3.0309   -1.8169
    0.1504   -2.0583   -1.9771
    0.4183   -1.7956    0.3241
   -0.4234   -3.3797    0.3043
@<BUDE>CONF  31
    0.5684    3.9764   -3.9316
    0.3642    2.4422   -4.1101
   -1.1369    2.0360   -3.9159
    0.7266    2.0521   -5.5843
    1.2913    1.7451   -3.2110
    1.0659    1.2204   -2.0329
    2.1903    0.6266   -1.6105
    3.1655    0.8182   -2.6683
    2.5638    1.4715   -3.5680
    4.5988    0.3683   -2.7504
    5.4478    0.4606   -1.4605
    5.6908    1.4561   -2.6166
   -0.1406    1.2188   -1.1765
   -1.1408    1.8026   -1.5595
   -0.1128    0.6324    0.0478
   -1.3067    0.6415    0.8846
   -1.1459   -0.0062    2.2924
   -0.8172   -1.4867    1.9861
   -1.8039   -2.3412    1.4828
   -1.4973   -3.6740    1.1990
   -0.2070   -4.1785    1.3871
    0.7730   -3.3273    1.8986
    0.4708   -1.9940    2.1959
    0.0431   -5.5291    1.0751
   -0.9689   -6.5373    1.2438
   -2.3775   -0.0455    3.1293
   -2.1269   -0.6659    4.2946
   -3.3314   -0.4947    5.2544
   -3.3807    0.8624    5.7242
   -2.8393    1.7843    4.7690
   -3.0535    1.2592    3.3259
    1.6220    4.2460   -4.1152
    0.2938    4.2758   -2.9064
   -0.0672    4.5258   -4.6417
   -1.4688    2.2724   -2.8909
   -1.7722    2.5806   -4.6343
   -1.3042    0.9595   -4.0563
    0.5832    0.9701   -5.7456
    1.7785    2.3069   -5.7978
    0.0815    2.5960   -6.2946
    2.3678    0.1102   -0.6666
    4.8574   -0.4677   -3.4227
    4.9520    0.8628   -0.5616
    6.1969   -0.3347   -1.3080
    5.3488    2.4922   -2.4583
    6.6021    1.3135   -3.2215
    0.7271    0.2001    0.3711
   -2.1106    0.0943    0.3589
   -1.6328    1.6836    1.0500
   -0.3238    0.5017    2.8288
   -2.8126   -1.9771    1.3104
   -2.2647   -4.3373    0.8103
    1.7856   -3.6708    2.0776
    1.2468   -1.3474    2.5958
   -1.8327   -6.2942    0.6048
   -0.5752   -7.5227    0.9431
   -1.3064   -6.5642    2.2935
   -1.2391   -0.2445    4.8001
   -1.9558   -1.7509    4.1886
   -4.2693   -0.7583    4.7328
   -3.2312   -1.1555    6.1333
   -3.3024    2.7815    4.8825
   -1.7591    1.8871    4.9736
   -2.6492    2.0060    2.6202
   -4.1408    1.1636    3.1529
@<BUDE>CONF  32
    1.7881    3.2346   -2.8793
    1.5839    1.7004   -3.0578
    0.0828    1.2942   -2.8636
    1.9463    1.3103   -4.5320
    2.5110    1.0033   -2.1587
    2.2856    0.4786   -0.9806
    3.4100   -0.1152   -0.5582
    4.3852    0.0764   -1.6160
    3.7835    0.7297   -2.5157
    5.8185   -0.3735   -1.6981
    6.6675   -0.2812   -0.4082
    6.9105    0.7143   -1.5643
    1.0791    0.4770   -0.1242
    0.0789    1.0608   -0.5072
    1.1069   -0.1094    1.1001
   -0.0870   -0.1003    1.9369
   -1.4317   -0.3550    1.1925
   -2.5090   -0.1155    2.2769
   -2.6794   -1.0322    3.3198
   -3.6472   -0.8043    4.3009
   -4.4468    0.3423    4.2799
   -4.2822    1.2502    3.2333
   -3.3228    1.0234    2.2408
   -5.4000    0.5208    5.3015
   -6.0657   -0.5999    5.9098
   -1.6551   -1.7507    0.7227
   -2.9263   -1.8313    0.0004
   -2.9264   -1.0797   -1.3548
   -1.5807   -0.9828   -1.8492
   -0.8258   -2.1755   -1.5972
   -0.5534   -2.3349   -0.0791
    2.8417    3.5042   -3.0629
    1.5135    3.5340   -1.8541
    1.1525    3.7840   -3.5894
   -0.2491    1.5306   -1.8386
   -0.5525    1.8388   -3.5820
   -0.0845    0.2177   -3.0040
    1.8029    0.2283   -4.6933
    2.9982    1.5651   -4.7455
    1.3012    1.8542   -5.2423
    3.5875   -0.6316    0.3857
    6.0771   -1.2095   -2.3704
    6.1717    0.1210    0.4907
    7.4166   -1.0765   -0.2557
    6.5685    1.7504   -1.4060
    7.8218    0.5717   -2.1692
    1.9468   -0.5417    1.4234
   -0.1644    0.8854    2.4311
    0.0000   -0.8826    2.7116
   -1.5178    0.3593    0.3535
   -2.0640   -1.9255    3.3744
   -3.7801   -1.5178    5.1091
   -4.8859    2.1478    3.1608
   -3.2112    1.7407    1.4325
   -5.3160   -1.2523    6.3855
   -6.7679   -0.2482    6.6842
   -6.6024   -1.1841    5.1435
   -3.7353   -1.4001    0.6176
   -3.2046   -2.8772   -0.2154
   -3.5684   -1.6112   -2.0804
   -3.3197   -0.0548   -1.2361
   -1.3588   -3.0638   -1.9823
    0.1306   -2.0912   -2.1425
    0.3985   -1.8285    0.1587
   -0.4432   -3.4126    0.1389
@<BUDE>CONF  33
    0.6031    4.0917   -3.9587
    0.3989    2.5575   -4.1372
   -1.1022    2.1513   -3.9430
    0.7613    2.1674   -5.6114
    1.3260    1.8604   -3.2381
    1.1006    1.3357   -2.0600
    2.2250    0.7419   -1.6376
    3.2002    0.9335   -2.6954
    2.5985    1.5868   -3.5951
    4.6335    0.4836   -2.7775
    5.0017   -0.8476   -2.0807
    5.4553    0.4956   -1.4668
   -0.1059    1.3341   -1.2036
   -1.1061    1.9179   -1.5866
   -0.0781    0.7477    0.0207
   -1.2720    0.7568    0.8575
   -1.1112    0.1091    2.2653
   -0.7825   -1.3714    1.9590
   -1.7692   -2.2259    1.4557
   -1.4626   -3.5587    1.1719
   -0.1723   -4.0632    1.3600
    0.8077   -3.2120    1.8715
    0.5055   -1.8787    2.1688
    0.0778   -5.4138    1.0480
   -0.9342   -6.4220    1.2167
   -2.3428    0.0698    3.1022
   -2.0922   -0.5506    4.2675
   -3.2967   -0.3794    5.2273
   -3.3460    0.9777    5.6971
   -2.8046    1.8996    4.7419
   -3.0188    1.3745    3.2988
    1.6567    4.3613   -4.1423
    0.3285    4.3911   -2.9335
   -0.0325    4.6411   -4.6688
   -1.4341    2.3877   -2.9180
   -1.7375    2.6959   -4.6614
   -1.2695    1.0748   -4.0834
    0.6179    1.0854   -5.7727
    1.8132    2.4222   -5.8249
    0.1162    2.7113   -6.3217
    2.4025    0.2255   -0.6937
    5.2121    0.7108   -3.6894
    4.1914   -1.3793   -1.5553
    5.7694   -1.4653   -2.5767
    4.9343    0.8232   -0.5520
    6.5229    0.7573   -1.5593
    0.7618    0.3154    0.3440
   -2.0759    0.2096    0.3318
   -1.5981    1.7989    1.0229
   -0.2891    0.6170    2.8017
   -2.7779   -1.8618    1.2833
   -2.2300   -4.2220    0.7832
    1.8203   -3.5555    2.0505
    1.2815   -1.2321    2.5687
   -1.7980   -6.1789    0.5777
   -0.5405   -7.4074    0.9160
   -1.2717   -6.4489    2.2664
   -1.2044   -0.1292    4.7730
   -1.9211   -1.6356    4.1615
   -4.2346   -0.6430    4.7057
   -3.1965   -1.0402    6.1062
   -3.2677    2.8968    4.8554
   -1.7244    2.0024    4.9465
   -2.6145    2.1213    2.5931
   -4.1061    1.2789    3.1258
@<BUDE>CONF  34
    1.8227    3.3499   -2.9064
    1.6185    1.8157   -3.0849
    0.1174    1.4095   -2.8907
    1.9809    1.4256   -4.5591
    2.5456    1.1186   -2.1858
    2.3202    0.5939   -1.0077
    3.4446    0.0001   -0.5853
    4.4198    0.1917   -1.6431
    3.8181    0.8450   -2.5428
    5.8531   -0.2582   -1.7252
    6.2213   -1.5894   -1.0284
    6.6749   -0.2462   -0.4145
    1.1137    0.5923   -0.1513
    0.1135    1.1761   -0.5343
    1.1415    0.0059    1.0730
   -0.0524    0.0150    1.9098
   -1.3971   -0.2397    1.1654
   -2.4744   -0.0002    2.2498
   -2.6448   -0.9169    3.2927
   -3.6126   -0.6890    4.2738
   -4.4122    0.4576    4.2528
   -4.2476    1.3655    3.2062
   -3.2882    1.1387    2.2137
   -5.3654    0.6361    5.2744
   -6.0311   -0.4846    5.8827
   -1.6205   -1.6354    0.6956
   -2.8917   -1.7160   -0.0267
   -2.8918   -0.9644   -1.3819
   -1.5461   -0.8675   -1.8763
   -0.7912   -2.0602   -1.6243
   -0.5188   -2.2196   -0.1062
    2.8763    3.6195   -3.0900
    1.5481    3.6493   -1.8812
    1.1871    3.8993   -3.6165
   -0.2145    1.6459   -1.8657
   -0.5179    1.9541   -3.6091
   -0.0499    0.3330   -3.0311
    1.8375    0.3436   -4.7204
    3.0328    1.6804   -4.7726
    1.3358    1.9695   -5.2694
    3.6221   -0.5163    0.3586
    6.4317   -0.0310   -2.6371
    5.4110   -2.1211   -0.5030
    6.9890   -2.2071   -1.5244
    6.1539    0.0814    0.5003
    7.7425    0.0155   -0.5070
    1.9814   -0.4264    1.3963
   -0.1298    1.0007    2.4040
    0.0346   -0.7673    2.6845
   -1.4832    0.4746    0.3264
   -2.0294   -1.8102    3.3473
   -3.7455   -1.4025    5.0820
   -4.8513    2.2631    3.1337
   -3.1766    1.8560    1.4054
   -5.2814   -1.1370    6.3584
   -6.7333   -0.1329    6.6571
   -6.5678   -1.0688    5.1164
   -3.7007   -1.2848    0.5905
   -3.1700   -2.7619   -0.2425
   -3.5338   -1.4959   -2.1075
   -3.2851    0.0605   -1.2632
   -1.3242   -2.9485   -2.0094
    0.1652   -1.9759   -2.1696
    0.4331   -1.7132    0.1316
   -0.4086   -3.2973    0.1118
@<BUDE>CONF  35
    1.8570    3.5284   -2.8454
    1.6528    1.9942   -3.0239
    0.1517    1.5880   -2.8297
    2.0152    1.6041   -4.4981
    2.5799    1.2971   -2.1248
    2.3545    0.7724   -0.9467
    3.4789    0.1786   -0.5243
    4.4541    0.3702   -1.5821
    3.8524    1.0235   -2.4818
    5.8874   -0.0797   -1.6642
    6.2102   -1.2541   -2.6180
    6.2251   -1.4756   -1.0891
    1.1480    0.7708   -0.0903
    0.1478    1.3546   -0.4733
    1.1758    0.1844    1.1340
   -0.0181    0.1935    1.9708
   -1.3628   -0.0612    1.2264
   -2.4401    0.1783    2.3108
   -2.6105   -0.7384    3.3537
   -3.5783   -0.5105    4.3348
   -4.3779    0.6361    4.3138
   -4.2133    1.5440    3.2672
   -3.2539    1.3172    2.2747
   -5.3311    0.8146    5.3354
   -5.9968   -0.3061    5.9437
   -1.5862   -1.4569    0.7566
   -2.7930   -1.5631    0.1750
   -2.9248   -2.9411   -0.5215
   -2.1011   -2.9636   -1.6988
   -0.9534   -2.1139   -1.5710
   -0.5077   -2.0228   -0.0887
    2.9106    3.7980   -3.0290
    1.5824    3.8278   -1.8202
    1.2214    4.0778   -3.5555
   -0.1802    1.8244   -1.8047
   -0.4836    2.1326   -3.5481
   -0.0156    0.5115   -2.9701
    1.8718    0.5221   -4.6594
    3.0671    1.8589   -4.7116
    1.3701    2.1480   -5.2084
    3.6564   -0.3378    0.4196
    6.6888    0.6716   -1.5581
    5.3657   -1.6979   -3.1706
    7.1835   -1.2128   -3.1356
    5.3905   -2.0578   -0.6647
    7.2104   -1.5815   -0.6046
    2.0157   -0.2479    1.4573
   -0.0955    1.1792    2.4650
    0.0689   -0.5888    2.7455
   -1.4489    0.6531    0.3874
   -1.9951   -1.6317    3.4083
   -3.7112   -1.2240    5.1430
   -4.8170    2.4416    3.1947
   -3.1423    2.0345    1.4664
   -5.2471   -0.9585    6.4194
   -6.6990    0.0456    6.7181
   -6.5335   -0.8903    5.1774
   -2.9452   -0.7868   -0.5967
   -3.6334   -1.4838    0.8858
   -2.6268   -3.7455    0.1752
   -3.9678   -3.1266   -0.8326
   -0.1206   -2.4857   -2.1954
   -1.2326   -1.1115   -1.9405
    0.3913   -1.3840   -0.0343
   -0.2391   -3.0389    0.2524
