@<TRIPOS>MOLECULE
ZINC61408927
   51    52     0     0     0
SMALL
USER_CHARGES

@<TRIPOS>ATOM
      1 C1         -1.2193    2.7978   -4.8384 C.3       1 <0>        -0.1139
      2 C2         -0.5389    1.4567   -4.9371 C.ar      1 <0>        -0.1278
      3 C3         -0.5286    0.7775   -6.1343 C.ar      1 <0>        -0.0331
      4 C4          0.1027   -0.4665   -6.2248 C.ar      1 <0>        -0.1443
      5 C5          0.7218   -1.0163   -5.0979 C.ar      1 <0>        -0.0449
      6 C6          0.7075   -0.3316   -3.9043 C.ar      1 <0>        -0.1321
      7 C7          0.0829    0.9092   -3.8193 C.ar      1 <0>         0.2027
      8 N1          0.0758    1.6028   -2.6101 N.am      1 <0>        -0.6834
      9 C8         -0.0057    0.9276   -1.4465 C.2       1 <0>         0.7034
     10 O1          0.0102   -0.2881   -1.4466 O.2       1 <0>        -0.5648
     11 N2         -0.1050    1.6001   -0.2827 N.am      1 <0>        -0.7401
     12 C9         -0.1936    0.8662    0.9821 C.3       1 <0>         0.1407
     13 C10        -0.2967    1.8591    2.1417 C.3       1 <0>        -0.0859
     14 C11        -0.3878    1.1041    3.4428 C.ar      1 <0>        -0.1215
     15 C12        -1.6237    0.7378    3.9430 C.ar      1 <0>        -0.0699
     16 C13        -1.7099    0.0461    5.1357 C.ar      1 <0>        -0.1435
     17 C14        -0.5552   -0.2813    5.8314 C.ar      1 <0>         0.1289
     18 C15         0.6836    0.0870    5.3271 C.ar      1 <0>        -0.2084
     19 C16         0.7648    0.7741    4.1314 C.ar      1 <0>        -0.0704
     20 O2         -0.6375   -0.9613    7.0052 O.3       1 <0>        -0.2897
     21 C17         0.5923   -1.2644    7.6669 C.3       1 <0>         0.0392
     22 C18         0.3051   -2.0153    8.9415 C.2       1 <0>         0.5189
     23 O3         -0.8400   -2.2662    9.2527 O.2       1 <0>        -0.5164
     24 N3          1.3207   -2.4081    9.7357 N.am      1 <0>        -0.8500
     25 C19         0.1155   -1.1973   -7.5054 C.2       1 <0>         0.5100
     26 O4         -0.4232   -0.7184   -8.4836 O.2       1 <0>        -0.5069
     27 O5          0.7245   -2.3963   -7.5909 O.3       1 <0>        -0.3499
     28 C20         0.6982   -3.0482   -8.8622 C.3       1 <0>         0.0344
     29 H1         -0.5048    3.5860   -5.0757 H         1 <0>         0.0741
     30 H2         -2.0501    2.8364   -5.5430 H         1 <0>         0.0756
     31 H3         -1.5950    2.9410   -3.8253 H         1 <0>         0.0654
     32 H4         -1.0080    1.2049   -7.0026 H         1 <0>         0.1419
     33 H5          1.2102   -1.9773   -5.1642 H         1 <0>         0.1420
     34 H6          1.1851   -0.7558   -3.0335 H         1 <0>         0.1513
     35 H7          0.1295    2.5713   -2.6061 H         1 <0>         0.4099
     36 H8         -0.1177    2.5700   -0.2826 H         1 <0>         0.3991
     37 H9         -1.0770    0.2279    0.9707 H         1 <0>         0.0724
     38 H10         0.6974    0.2512    1.1085 H         1 <0>         0.0717
     39 H11         0.5868    2.4974    2.1531 H         1 <0>         0.0798
     40 H12        -1.1877    2.4741    2.0153 H         1 <0>         0.0807
     41 H13        -2.5223    0.9929    3.4010 H         1 <0>         0.1319
     42 H14        -2.6755   -0.2392    5.5264 H         1 <0>         0.1348
     43 H15         1.5840   -0.1667    5.8669 H         1 <0>         0.1287
     44 H16         1.7292    1.0572    3.7362 H         1 <0>         0.1269
     45 H17         1.2136   -1.8789    7.0153 H         1 <0>         0.0958
     46 H18         1.1168   -0.3381    7.9012 H         1 <0>         0.0955
     47 H19         2.2365   -2.2075    9.4869 H         1 <0>         0.4037
     48 H20         1.1358   -2.8914   10.5562 H         1 <0>         0.4105
     49 H21        -0.3358   -3.2230   -9.1595 H         1 <0>         0.0617
     50 H22         1.1878   -2.4174   -9.6042 H         1 <0>         0.0616
     51 H23         1.2224   -4.0013   -8.7928 H         1 <0>         0.1040
@<TRIPOS>BOND
     1    1    2 1
     2    1   29 1
     3    1   30 1
     4    1   31 1
     5    2    7 ar
     6    2    3 ar
     7    3    4 ar
     8    3   32 1
     9    4    5 ar
    10    4   25 1
    11    5    6 ar
    12    5   33 1
    13    6    7 ar
    14    6   34 1
    15    7    8 1
    16    8    9 am
    17    8   35 1
    18    9   10 2
    19    9   11 am
    20   11   12 1
    21   11   36 1
    22   12   13 1
    23   12   37 1
    24   12   38 1
    25   13   14 1
    26   13   39 1
    27   13   40 1
    28   14   19 ar
    29   14   15 ar
    30   15   16 ar
    31   15   41 1
    32   16   17 ar
    33   16   42 1
    34   17   18 ar
    35   17   20 1
    36   18   19 ar
    37   18   43 1
    38   19   44 1
    39   20   21 1
    40   21   22 1
    41   21   45 1
    42   21   46 1
    43   22   23 2
    44   22   24 am
    45   24   47 1
    46   24   48 1
    47   25   26 2
    48   25   27 1
    49   27   28 1
    50   28   49 1
    51   28   50 1
    52   28   51 1
@<BUDE>CONF  1
    1.6951    3.4903    1.5924
    1.8711    2.1612    2.2867
    1.8061    2.1058    3.6840
    2.0386    0.9103    4.3745
    2.3227   -0.2485    3.6498
    2.3468   -0.2117    2.2506
    2.1051    0.9847    1.5650
    2.1051    0.9841    0.1499
    2.1051   -0.1674   -0.5155
    2.1051   -1.2499    0.1096
    2.1051   -0.1664   -1.8456
    2.1051   -1.4392   -2.5810
    0.8480   -2.2316   -2.2258
   -0.3731   -1.4631   -2.6714
   -0.9933   -0.5583   -1.8016
   -2.1212    0.1617   -2.2131
   -2.6343   -0.0177   -3.4981
   -2.0294   -0.9316   -4.3692
   -0.9035   -1.6523   -3.9531
   -3.7239    0.7049   -3.9072
   -4.7173    0.0362   -4.6888
   -5.2985   -1.1068   -3.8914
   -4.9903   -2.2660   -4.1645
   -6.1432   -0.8596   -2.8942
    1.9908    0.8676    5.8531
    1.7514    1.8615    6.4718
    2.2176   -0.2943    6.5020
    2.1608   -0.2868    7.9309
    1.1275    3.3473    0.6753
    2.6718    3.9063    1.3538
    1.1596    4.1734    2.2483
    1.5699    2.9970    4.2464
    2.5253   -1.1763    4.1640
    2.5497   -1.1115    1.6889
    2.1051    1.8587   -0.3551
    2.1051    0.7088   -2.3496
    2.9869   -2.0151   -2.3079
    2.1186   -1.2394   -3.6504
    0.8083   -2.3842   -1.1493
    0.8738   -3.1961   -2.7287
   -0.6083   -0.4091   -0.8037
   -2.5986    0.8588   -1.5404
   -2.4392   -1.0775   -5.3577
   -0.4499   -2.3580   -4.6333
   -4.2627   -0.3498   -5.5987
   -5.5077    0.7379   -4.9469
   -6.5319   -1.6242   -2.3609
   -6.3955    0.0925   -2.6709
    1.1662    0.0156    8.2521
    2.3764   -1.2846    8.3071
    2.8966    0.4145    8.3188
@<BUDE>CONF  2
    1.6951    3.4903    1.5924
    1.8711    2.1612    2.2867
    1.8061    2.1058    3.6840
    2.0386    0.9103    4.3745
    2.3227   -0.2485    3.6498
    2.3468   -0.2117    2.2506
    2.1051    0.9847    1.5650
    2.1051    0.9841    0.1499
    2.1051   -0.1674   -0.5155
    2.1051   -1.2499    0.1096
    2.1051   -0.1664   -1.8456
    2.1051   -1.4392   -2.5810
    0.8480   -2.2316   -2.2258
   -0.3731   -1.4631   -2.6714
   -0.9933   -0.5583   -1.8016
   -2.1212    0.1617   -2.2131
   -2.6343   -0.0177   -3.4981
   -2.0294   -0.9316   -4.3692
   -0.9035   -1.6523   -3.9531
   -3.7239    0.7049   -3.9072
   -4.7173    0.0362   -4.6888
   -5.2985   -1.1068   -3.8914
   -4.9903   -2.2660   -4.1645
   -6.1432   -0.8596   -2.8942
    1.9908    0.8676    5.8531
    1.7514    1.8615    6.4718
    2.2176   -0.2943    6.5020
    2.1608   -0.2868    7.9309
    1.1275    3.3473    0.6753
    2.6718    3.9063    1.3538
    1.1596    4.1734    2.2483
    1.5699    2.9970    4.2464
    2.5253   -1.1763    4.1640
    2.5497   -1.1115    1.6889
    2.1051    1.8587   -0.3551
    2.1051    0.7088   -2.3496
    2.9869   -2.0151   -2.3079
    2.1186   -1.2394   -3.6504
    0.8083   -2.3842   -1.1493
    0.8738   -3.1961   -2.7287
   -0.6083   -0.4091   -0.8037
   -2.5986    0.8588   -1.5404
   -2.4392   -1.0775   -5.3577
   -0.4499   -2.3580   -4.6333
   -4.2627   -0.3498   -5.5987
   -5.5077    0.7379   -4.9469
   -6.3955    0.0924   -2.6709
   -6.5319   -1.6242   -2.3609
    1.1662    0.0156    8.2521
    2.3764   -1.2846    8.3071
    2.8966    0.4145    8.3188
@<BUDE>CONF  3
    1.7492    3.2726    1.7098
    1.9252    1.9435    2.4041
    1.8602    1.8881    3.8014
    2.0927    0.6926    4.4919
    2.3768   -0.4662    3.7672
    2.4009   -0.4294    2.3680
    2.1592    0.7670    1.6824
    2.1592    0.7664    0.2673
    2.1592   -0.3851   -0.3981
    2.1592   -1.4676    0.2270
    2.1592   -0.3841   -1.7282
    2.1592   -1.6569   -2.4636
    0.9021   -2.4493   -2.1084
   -0.3190   -1.6808   -2.5540
   -0.9392   -0.7760   -1.6842
   -2.0671   -0.0560   -2.0957
   -2.5802   -0.2354   -3.3807
   -1.9753   -1.1493   -4.2518
   -0.8494   -1.8700   -3.8357
   -3.6698    0.4872   -3.7898
   -4.6632   -0.1815   -4.5714
   -5.7692    0.7877   -4.9141
   -5.8608    1.2371   -6.0554
   -6.6437    1.1548   -3.9816
    2.0449    0.6499    5.9705
    1.8055    1.6438    6.5892
    2.2717   -0.5120    6.6194
    2.2149   -0.5045    8.0483
    1.1816    3.1296    0.7927
    2.7259    3.6886    1.4712
    1.2137    3.9557    2.3657
    1.6240    2.7793    4.3638
    2.5794   -1.3940    4.2814
    2.6038   -1.3292    1.8063
    2.1592    1.6410   -0.2377
    2.1592    0.4911   -2.2322
    3.0410   -2.2328   -2.1905
    2.1727   -1.4571   -3.5330
    0.8624   -2.6019   -1.0319
    0.9279   -3.4138   -2.6113
   -0.5542   -0.6268   -0.6863
   -2.5445    0.6411   -1.4230
   -2.3851   -1.2952   -5.2403
   -0.3958   -2.5757   -4.5159
   -5.0725   -1.0132   -4.0018
   -4.2115   -0.5559   -5.4876
   -7.3835    1.8030   -4.2109
   -6.5676    0.7851   -3.0449
    1.2203   -0.2021    8.3695
    2.4305   -1.5023    8.4245
    2.9507    0.1968    8.4362
@<BUDE>CONF  4
    1.7492    3.2726    1.7098
    1.9252    1.9435    2.4041
    1.8602    1.8881    3.8014
    2.0927    0.6926    4.4919
    2.3768   -0.4662    3.7672
    2.4009   -0.4294    2.3680
    2.1592    0.7670    1.6824
    2.1592    0.7664    0.2673
    2.1592   -0.3851   -0.3981
    2.1592   -1.4676    0.2270
    2.1592   -0.3841   -1.7282
    2.1592   -1.6569   -2.4636
    0.9021   -2.4493   -2.1084
   -0.3190   -1.6808   -2.5540
   -0.9392   -0.7760   -1.6842
   -2.0671   -0.0560   -2.0957
   -2.5802   -0.2354   -3.3807
   -1.9753   -1.1493   -4.2518
   -0.8494   -1.8700   -3.8357
   -3.6698    0.4872   -3.7898
   -4.6632   -0.1815   -4.5714
   -5.7692    0.7877   -4.9141
   -5.8608    1.2371   -6.0554
   -6.6437    1.1548   -3.9816
    2.0449    0.6499    5.9705
    1.8055    1.6438    6.5892
    2.2717   -0.5120    6.6194
    2.2149   -0.5045    8.0483
    1.1816    3.1296    0.7927
    2.7259    3.6886    1.4712
    1.2137    3.9557    2.3657
    1.6240    2.7793    4.3638
    2.5794   -1.3940    4.2814
    2.6038   -1.3292    1.8063
    2.1592    1.6410   -0.2377
    2.1592    0.4911   -2.2322
    3.0410   -2.2328   -2.1905
    2.1727   -1.4571   -3.5330
    0.8624   -2.6019   -1.0319
    0.9279   -3.4138   -2.6113
   -0.5542   -0.6268   -0.6863
   -2.5445    0.6411   -1.4230
   -2.3851   -1.2952   -5.2403
   -0.3958   -2.5757   -4.5159
   -5.0725   -1.0132   -4.0018
   -4.2115   -0.5559   -5.4876
   -6.5676    0.7851   -3.0449
   -7.3835    1.8030   -4.2109
    1.2203   -0.2021    8.3695
    2.4305   -1.5023    8.4245
    2.9507    0.1968    8.4362
@<BUDE>CONF  5
   -0.2916    4.8997    3.0395
   -0.1156    3.5706    3.7338
   -0.1806    3.5152    5.1311
    0.0519    2.3197    5.8216
    0.3360    1.1609    5.0969
    0.3601    1.1977    3.6977
    0.1184    2.3941    3.0121
    0.1184    2.3935    1.5970
    0.1184    1.2420    0.9316
    0.1184    0.1595    1.5567
    0.1184    1.2430   -0.3985
    0.1184   -0.0298   -1.1339
    0.1184    0.2509   -2.6358
    0.1184   -1.0565   -3.3913
    1.3277   -1.6626   -3.7520
    1.3324   -2.8785   -4.4462
    0.1273   -3.4962   -4.7818
   -1.0867   -2.8896   -4.4382
   -1.0876   -1.6721   -3.7470
    0.1341   -4.6975   -5.4403
   -0.8295   -4.8993   -6.4775
   -0.6216   -3.8709   -7.5634
   -1.4053   -2.9295   -7.6765
    0.4087   -3.9835   -8.3969
    0.0041    2.2770    7.3002
   -0.2353    3.2709    7.9189
    0.2309    1.1151    7.9491
    0.1741    1.1226    9.3780
   -0.8592    4.7567    2.1224
    0.6851    5.3157    2.8009
   -0.8271    5.5828    3.6954
   -0.4168    4.4064    5.6935
    0.5386    0.2331    5.6111
    0.5630    0.2979    3.1360
    0.1184    3.2681    1.0920
    0.1184    2.1182   -0.9025
   -0.7702   -0.5999   -0.8708
    1.0069   -0.5999   -0.8708
    1.0069    0.8216   -2.8974
   -0.7702    0.8216   -2.8975
    2.2686   -1.1963   -3.4999
    2.2664   -3.3441   -4.7241
   -2.0168   -3.3646   -4.7133
   -2.0313   -1.2123   -3.4929
   -1.8313   -4.7957   -6.0661
   -0.7092   -5.8971   -6.8943
    1.0514   -4.7569   -8.3031
    0.5477   -3.2957   -9.1232
   -0.8205    1.4250    9.6992
    0.3897    0.1248    9.7542
    0.9099    1.8239    9.7659
@<BUDE>CONF  6
   -0.2916    4.8997    3.0395
   -0.1156    3.5706    3.7338
   -0.1806    3.5152    5.1311
    0.0519    2.3197    5.8216
    0.3360    1.1609    5.0969
    0.3601    1.1977    3.6977
    0.1184    2.3941    3.0121
    0.1184    2.3935    1.5970
    0.1184    1.2420    0.9316
    0.1184    0.1595    1.5567
    0.1184    1.2430   -0.3985
    0.1184   -0.0298   -1.1339
    0.1184    0.2509   -2.6358
    0.1184   -1.0565   -3.3913
    1.3277   -1.6626   -3.7520
    1.3324   -2.8785   -4.4462
    0.1273   -3.4962   -4.7818
   -1.0867   -2.8896   -4.4382
   -1.0876   -1.6721   -3.7470
    0.1341   -4.6975   -5.4403
   -0.8295   -4.8993   -6.4775
   -0.6216   -3.8709   -7.5634
   -1.4053   -2.9295   -7.6765
    0.4087   -3.9835   -8.3969
    0.0041    2.2770    7.3002
   -0.2353    3.2709    7.9189
    0.2309    1.1151    7.9491
    0.1741    1.1226    9.3780
   -0.8592    4.7567    2.1224
    0.6851    5.3157    2.8009
   -0.8271    5.5828    3.6954
   -0.4168    4.4064    5.6935
    0.5386    0.2331    5.6111
    0.5630    0.2979    3.1360
    0.1184    3.2681    1.0920
    0.1184    2.1182   -0.9025
   -0.7702   -0.5999   -0.8708
    1.0069   -0.5999   -0.8708
    1.0069    0.8216   -2.8974
   -0.7702    0.8216   -2.8975
    2.2686   -1.1963   -3.4999
    2.2664   -3.3441   -4.7241
   -2.0168   -3.3646   -4.7133
   -2.0313   -1.2123   -3.4929
   -1.8313   -4.7957   -6.0661
   -0.7092   -5.8971   -6.8943
    0.5477   -3.2957   -9.1232
    1.0514   -4.7569   -8.3031
   -0.8205    1.4250    9.6992
    0.3897    0.1248    9.7542
    0.9099    1.8239    9.7659
@<BUDE>CONF  7
   -2.5069    3.1931    1.5551
   -2.3309    1.8640    2.2494
   -2.3959    1.8086    3.6467
   -2.1634    0.6131    4.3372
   -1.8793   -0.5457    3.6125
   -1.8552   -0.5089    2.2133
   -2.0969    0.6875    1.5277
   -2.0969    0.6869    0.1126
   -2.0969   -0.4646   -0.5528
   -2.0969   -1.5471    0.0723
   -2.0969   -0.4636   -1.8829
   -2.0969   -1.7364   -2.6183
   -0.8398   -2.5288   -2.2631
    0.3813   -1.7603   -2.7087
    0.9124   -1.9605   -3.9885
    2.0400   -1.2448   -4.4084
    2.6418   -0.3231   -3.5513
    2.1264   -0.1277   -2.2644
    1.0005   -0.8475   -1.8467
    3.7309    0.3934   -3.9723
    4.7954    0.6051   -3.0411
    5.8882    1.4108   -3.7019
    6.0392    2.5965   -3.4111
    6.6869    0.8380   -4.5979
   -2.2112    0.5704    5.8158
   -2.4506    1.5643    6.4345
   -1.9844   -0.5915    6.4647
   -2.0412   -0.5840    7.8936
   -3.5275    3.2774    1.1880
   -1.8136    3.2595    0.7192
   -2.3061    3.9984    2.2585
   -2.6321    2.6998    4.2091
   -1.6767   -1.4735    4.1267
   -1.6523   -1.4087    1.6516
   -2.0969    1.5615   -0.3924
   -2.0969    0.4116   -2.3869
   -2.1103   -1.5366   -3.6878
   -2.9787   -2.3122   -2.3453
   -0.8656   -3.4932   -2.7660
   -0.8001   -2.6813   -1.1865
    0.4580   -2.6710   -4.6631
    2.4485   -1.4011   -5.3959
    2.6048    0.5763   -1.5996
    0.6165   -0.6910   -0.8495
    5.1942   -0.3556   -2.7227
    4.4174    1.1463   -2.1762
    6.5621   -0.1355   -4.8359
    7.4179    1.3769   -5.0399
   -3.0358   -0.2816    8.2148
   -1.8256   -1.5818    8.2698
   -1.3054    0.1173    8.2815
@<BUDE>CONF  8
   -2.5069    3.1931    1.5551
   -2.3309    1.8640    2.2494
   -2.3959    1.8086    3.6467
   -2.1634    0.6131    4.3372
   -1.8793   -0.5457    3.6125
   -1.8552   -0.5089    2.2133
   -2.0969    0.6875    1.5277
   -2.0969    0.6869    0.1126
   -2.0969   -0.4646   -0.5528
   -2.0969   -1.5471    0.0723
   -2.0969   -0.4636   -1.8829
   -2.0969   -1.7364   -2.6183
   -0.8398   -2.5288   -2.2631
    0.3813   -1.7603   -2.7087
    0.9124   -1.9605   -3.9885
    2.0400   -1.2448   -4.4084
    2.6418   -0.3231   -3.5513
    2.1264   -0.1277   -2.2644
    1.0005   -0.8475   -1.8467
    3.7309    0.3934   -3.9723
    4.7954    0.6051   -3.0411
    5.8882    1.4108   -3.7019
    6.0392    2.5965   -3.4111
    6.6869    0.8380   -4.5979
   -2.2112    0.5704    5.8158
   -2.4506    1.5643    6.4345
   -1.9844   -0.5915    6.4647
   -2.0412   -0.5840    7.8936
   -3.5275    3.2774    1.1880
   -1.8136    3.2595    0.7192
   -2.3061    3.9984    2.2585
   -2.6321    2.6998    4.2091
   -1.6767   -1.4735    4.1267
   -1.6523   -1.4087    1.6516
   -2.0969    1.5615   -0.3924
   -2.0969    0.4116   -2.3869
   -2.1103   -1.5366   -3.6878
   -2.9787   -2.3122   -2.3453
   -0.8656   -3.4932   -2.7660
   -0.8001   -2.6813   -1.1865
    0.4580   -2.6710   -4.6631
    2.4485   -1.4011   -5.3959
    2.6048    0.5763   -1.5996
    0.6165   -0.6910   -0.8495
    5.1942   -0.3556   -2.7227
    4.4174    1.1463   -2.1762
    7.4179    1.3769   -5.0399
    6.5621   -0.1355   -4.8359
   -3.0358   -0.2816    8.2148
   -1.8256   -1.5818    8.2698
   -1.3054    0.1173    8.2815
@<BUDE>CONF  9
   -2.4526    3.4135    1.4430
   -2.2766    2.0844    2.1373
   -2.3416    2.0290    3.5346
   -2.1091    0.8335    4.2251
   -1.8250   -0.3253    3.5004
   -1.8009   -0.2885    2.1012
   -2.0426    0.9079    1.4156
   -2.0426    0.9073    0.0005
   -2.0426   -0.2442   -0.6649
   -2.0426   -1.3267   -0.0398
   -2.0426   -0.2432   -1.9950
   -2.0426   -1.5160   -2.7304
   -0.7855   -2.3084   -2.3752
    0.4356   -1.5399   -2.8208
    0.9667   -1.7401   -4.1006
    2.0943   -1.0244   -4.5205
    2.6961   -0.1027   -3.6634
    2.1807    0.0927   -2.3765
    1.0548   -0.6271   -1.9588
    3.7852    0.6138   -4.0844
    4.8497    0.8255   -3.1532
    5.4155   -0.5074   -2.7253
    5.1651   -0.9505   -1.6055
    6.1843   -1.2017   -3.5596
   -2.1569    0.7908    5.7037
   -2.3963    1.7847    6.3224
   -1.9301   -0.3711    6.3526
   -1.9869   -0.3636    7.7815
   -3.4732    3.4978    1.0759
   -1.7593    3.4799    0.6071
   -2.2518    4.2188    2.1464
   -2.5778    2.9202    4.0970
   -1.6224   -1.2531    4.0146
   -1.5980   -1.1883    1.5395
   -2.0426    1.7819   -0.5045
   -2.0426    0.6320   -2.4990
   -2.0560   -1.3162   -3.7999
   -2.9244   -2.0918   -2.4574
   -0.8113   -3.2728   -2.8781
   -0.7458   -2.4609   -1.2986
    0.5123   -2.4506   -4.7752
    2.5028   -1.1807   -5.5080
    2.6591    0.7967   -1.7117
    0.6708   -0.4706   -0.9616
    4.4689    1.3549   -2.2823
    5.6312    1.4173   -3.6251
    6.3892   -0.8369   -4.4788
    6.5627   -2.0932   -3.2734
   -2.9815   -0.0612    8.1027
   -1.7713   -1.3614    8.1577
   -1.2511    0.3377    8.1694
@<BUDE>CONF  10
   -2.4526    3.4135    1.4430
   -2.2766    2.0844    2.1373
   -2.3416    2.0290    3.5346
   -2.1091    0.8335    4.2251
   -1.8250   -0.3253    3.5004
   -1.8009   -0.2885    2.1012
   -2.0426    0.9079    1.4156
   -2.0426    0.9073    0.0005
   -2.0426   -0.2442   -0.6649
   -2.0426   -1.3267   -0.0398
   -2.0426   -0.2432   -1.9950
   -2.0426   -1.5160   -2.7304
   -0.7855   -2.3084   -2.3752
    0.4356   -1.5399   -2.8208
    0.9667   -1.7401   -4.1006
    2.0943   -1.0244   -4.5205
    2.6961   -0.1027   -3.6634
    2.1807    0.0927   -2.3765
    1.0548   -0.6271   -1.9588
    3.7852    0.6138   -4.0844
    4.8497    0.8255   -3.1532
    5.4155   -0.5074   -2.7253
    5.1651   -0.9505   -1.6055
    6.1843   -1.2017   -3.5596
   -2.1569    0.7908    5.7037
   -2.3963    1.7847    6.3224
   -1.9301   -0.3711    6.3526
   -1.9869   -0.3636    7.7815
   -3.4732    3.4978    1.0759
   -1.7593    3.4799    0.6071
   -2.2518    4.2188    2.1464
   -2.5778    2.9202    4.0970
   -1.6224   -1.2531    4.0146
   -1.5980   -1.1883    1.5395
   -2.0426    1.7819   -0.5045
   -2.0426    0.6320   -2.4990
   -2.0560   -1.3162   -3.7999
   -2.9244   -2.0918   -2.4574
   -0.8113   -3.2728   -2.8781
   -0.7458   -2.4609   -1.2986
    0.5123   -2.4506   -4.7752
    2.5028   -1.1807   -5.5080
    2.6591    0.7967   -1.7117
    0.6708   -0.4706   -0.9616
    4.4689    1.3549   -2.2823
    5.6312    1.4173   -3.6251
    6.5627   -2.0932   -3.2734
    6.3892   -0.8369   -4.4788
   -2.9815   -0.0612    8.1027
   -1.7713   -1.3614    8.1577
   -1.2511    0.3377    8.1694
@<BUDE>CONF  11
   -2.4687    3.0179    1.5513
   -2.2927    1.6888    2.2456
   -2.3577    1.6334    3.6429
   -2.1252    0.4379    4.3334
   -1.8411   -0.7209    3.6087
   -1.8170   -0.6841    2.2095
   -2.0587    0.5123    1.5239
   -2.0587    0.5117    0.1088
   -2.0587   -0.6398   -0.5566
   -2.0587   -1.7223    0.0685
   -2.0587   -0.6388   -1.8867
   -2.0587   -1.9116   -2.6221
   -0.8016   -2.7040   -2.2669
    0.4195   -1.9355   -2.7125
    0.9506   -2.1357   -3.9923
    2.0782   -1.4200   -4.4122
    2.6800   -0.4983   -3.5551
    2.1646   -0.3029   -2.2682
    1.0387   -1.0227   -1.8505
    3.7691    0.2182   -3.9761
    4.8336    0.4299   -3.0449
    5.9264    1.2356   -3.7057
    6.0774    2.4213   -3.4149
    6.7251    0.6628   -4.6017
   -2.1730    0.3952    5.8120
   -1.9722   -0.6333    6.3864
   -2.4435    1.5180    6.5109
   -2.4790    1.4278    7.9377
   -3.4893    3.1022    1.1842
   -1.7754    3.0843    0.7154
   -2.2679    3.8232    2.2547
   -2.5939    2.5246    4.2053
   -1.6385   -1.6487    4.1229
   -1.6141   -1.5839    1.6478
   -2.0587    1.3863   -0.3962
   -2.0587    0.2364   -2.3907
   -2.0721   -1.7118   -3.6916
   -2.9405   -2.4874   -2.3491
   -0.8274   -3.6684   -2.7698
   -0.7619   -2.8565   -1.1903
    0.4962   -2.8462   -4.6669
    2.4867   -1.5763   -5.3997
    2.6430    0.4011   -1.6034
    0.6547   -0.8662   -0.8533
    5.2324   -0.5308   -2.7265
    4.4556    0.9711   -2.1800
    7.4561    1.2017   -5.0437
    6.6003   -0.3107   -4.8397
   -1.5067    1.1056    8.3044
   -2.7203    2.4026    8.3562
   -3.2370    0.7067    8.2361
@<BUDE>CONF  12
   -2.4687    3.0179    1.5513
   -2.2927    1.6888    2.2456
   -2.3577    1.6334    3.6429
   -2.1252    0.4379    4.3334
   -1.8411   -0.7209    3.6087
   -1.8170   -0.6841    2.2095
   -2.0587    0.5123    1.5239
   -2.0587    0.5117    0.1088
   -2.0587   -0.6398   -0.5566
   -2.0587   -1.7223    0.0685
   -2.0587   -0.6388   -1.8867
   -2.0587   -1.9116   -2.6221
   -0.8016   -2.7040   -2.2669
    0.4195   -1.9355   -2.7125
    0.9506   -2.1357   -3.9923
    2.0782   -1.4200   -4.4122
    2.6800   -0.4983   -3.5551
    2.1646   -0.3029   -2.2682
    1.0387   -1.0227   -1.8505
    3.7691    0.2182   -3.9761
    4.8336    0.4299   -3.0449
    5.9264    1.2356   -3.7057
    6.0774    2.4213   -3.4149
    6.7251    0.6628   -4.6017
   -2.1730    0.3952    5.8120
   -1.9722   -0.6333    6.3864
   -2.4435    1.5180    6.5109
   -2.4790    1.4278    7.9377
   -3.4893    3.1022    1.1842
   -1.7754    3.0843    0.7154
   -2.2679    3.8232    2.2547
   -2.5939    2.5246    4.2053
   -1.6385   -1.6487    4.1229
   -1.6141   -1.5839    1.6478
   -2.0587    1.3863   -0.3962
   -2.0587    0.2364   -2.3907
   -2.0721   -1.7118   -3.6916
   -2.9405   -2.4874   -2.3491
   -0.8274   -3.6684   -2.7698
   -0.7619   -2.8565   -1.1903
    0.4962   -2.8462   -4.6669
    2.4867   -1.5763   -5.3997
    2.6430    0.4011   -1.6034
    0.6547   -0.8662   -0.8533
    5.2324   -0.5308   -2.7265
    4.4556    0.9711   -2.1800
    6.6003   -0.3107   -4.8397
    7.4561    1.2017   -5.0437
   -1.5067    1.1056    8.3044
   -2.7203    2.4026    8.3562
   -3.2370    0.7067    8.2361
@<BUDE>CONF  13
    1.7333    3.3150    1.5885
    1.9093    1.9859    2.2828
    1.8443    1.9305    3.6801
    2.0768    0.7350    4.3706
    2.3609   -0.4238    3.6459
    2.3850   -0.3870    2.2467
    2.1433    0.8094    1.5611
    2.1433    0.8088    0.1460
    2.1433   -0.3427   -0.5194
    2.1433   -1.4252    0.1057
    2.1433   -0.3417   -1.8495
    2.1433   -1.6145   -2.5849
    0.8862   -2.4069   -2.2297
   -0.3349   -1.6384   -2.6753
   -0.9551   -0.7336   -1.8055
   -2.0830   -0.0136   -2.2170
   -2.5961   -0.1930   -3.5020
   -1.9912   -1.1069   -4.3731
   -0.8653   -1.8276   -3.9570
   -3.6857    0.5296   -3.9111
   -4.6791   -0.1391   -4.6927
   -5.2603   -1.2821   -3.8953
   -4.9521   -2.4413   -4.1684
   -6.1050   -1.0349   -2.8981
    2.0290    0.6923    5.8492
    2.2298   -0.3362    6.4236
    1.7585    1.8151    6.5481
    1.7230    1.7249    7.9749
    1.1657    3.1720    0.6714
    2.7100    3.7310    1.3499
    1.1978    3.9981    2.2444
    1.6081    2.8217    4.2425
    2.5635   -1.3516    4.1601
    2.5879   -1.2868    1.6850
    2.1433    1.6834   -0.3590
    2.1433    0.5335   -2.3535
    3.0251   -2.1904   -2.3118
    2.1568   -1.4147   -3.6543
    0.8465   -2.5595   -1.1532
    0.9120   -3.3714   -2.7326
   -0.5701   -0.5844   -0.8076
   -2.5604    0.6835   -1.5443
   -2.4010   -1.2528   -5.3616
   -0.4117   -2.5333   -4.6372
   -4.2245   -0.5251   -5.6026
   -5.4695    0.5626   -4.9508
   -6.3573   -0.0829   -2.6748
   -6.4937   -1.7995   -2.3648
    2.6953    1.4027    8.3416
    1.4817    2.6997    8.3934
    0.9650    1.0038    8.2733
@<BUDE>CONF  14
    1.7333    3.3150    1.5885
    1.9093    1.9859    2.2828
    1.8443    1.9305    3.6801
    2.0768    0.7350    4.3706
    2.3609   -0.4238    3.6459
    2.3850   -0.3870    2.2467
    2.1433    0.8094    1.5611
    2.1433    0.8088    0.1460
    2.1433   -0.3427   -0.5194
    2.1433   -1.4252    0.1057
    2.1433   -0.3417   -1.8495
    2.1433   -1.6145   -2.5849
    0.8862   -2.4069   -2.2297
   -0.3349   -1.6384   -2.6753
   -0.9551   -0.7336   -1.8055
   -2.0830   -0.0136   -2.2170
   -2.5961   -0.1930   -3.5020
   -1.9912   -1.1069   -4.3731
   -0.8653   -1.8276   -3.9570
   -3.6857    0.5296   -3.9111
   -4.6791   -0.1391   -4.6927
   -5.2603   -1.2821   -3.8953
   -4.9521   -2.4413   -4.1684
   -6.1050   -1.0349   -2.8981
    2.0290    0.6923    5.8492
    2.2298   -0.3362    6.4236
    1.7585    1.8151    6.5481
    1.7230    1.7249    7.9749
    1.1657    3.1720    0.6714
    2.7100    3.7310    1.3499
    1.1978    3.9981    2.2444
    1.6081    2.8217    4.2425
    2.5635   -1.3516    4.1601
    2.5879   -1.2868    1.6850
    2.1433    1.6834   -0.3590
    2.1433    0.5335   -2.3535
    3.0251   -2.1904   -2.3118
    2.1568   -1.4147   -3.6543
    0.8465   -2.5595   -1.1532
    0.9120   -3.3714   -2.7326
   -0.5701   -0.5844   -0.8076
   -2.5604    0.6835   -1.5443
   -2.4010   -1.2528   -5.3616
   -0.4117   -2.5333   -4.6372
   -4.2245   -0.5251   -5.6026
   -5.4695    0.5626   -4.9508
   -6.4937   -1.7995   -2.3648
   -6.3573   -0.0828   -2.6748
    2.6953    1.4027    8.3416
    1.4817    2.6997    8.3934
    0.9650    1.0038    8.2733
@<BUDE>CONF  15
   -0.2534    4.7245    3.0357
   -0.0774    3.3954    3.7300
   -0.1424    3.3400    5.1273
    0.0901    2.1445    5.8178
    0.3742    0.9857    5.0931
    0.3983    1.0225    3.6939
    0.1566    2.2189    3.0083
    0.1566    2.2183    1.5932
    0.1566    1.0668    0.9278
    0.1566   -0.0157    1.5529
    0.1566    1.0678   -0.4023
    0.1566   -0.2050   -1.1377
    0.1566    0.0757   -2.6396
    0.1566   -1.2317   -3.3951
    1.3659   -1.8378   -3.7558
    1.3706   -3.0537   -4.4500
    0.1655   -3.6714   -4.7856
   -1.0485   -3.0648   -4.4420
   -1.0494   -1.8473   -3.7508
    0.1723   -4.8727   -5.4441
   -0.7913   -5.0745   -6.4813
   -0.5834   -4.0461   -7.5672
   -1.3671   -3.1047   -7.6803
    0.4469   -4.1587   -8.4007
    0.0423    2.1018    7.2964
    0.2431    1.0733    7.8708
   -0.2282    3.2246    7.9953
   -0.2637    3.1344    9.4221
   -0.8210    4.5815    2.1186
    0.7233    5.1405    2.7971
   -0.7889    5.4076    3.6916
   -0.3786    4.2312    5.6897
    0.5768    0.0579    5.6073
    0.6012    0.1227    3.1322
    0.1566    3.0929    1.0882
    0.1566    1.9430   -0.9063
   -0.7320   -0.7751   -0.8746
    1.0451   -0.7751   -0.8746
    1.0451    0.6464   -2.9012
   -0.7320    0.6464   -2.9013
    2.3068   -1.3715   -3.5037
    2.3046   -3.5193   -4.7279
   -1.9786   -3.5398   -4.7171
   -1.9931   -1.3875   -3.4967
   -1.7931   -4.9709   -6.0699
   -0.6710   -6.0723   -6.8981
    1.0896   -4.9321   -8.3069
    0.5859   -3.4709   -9.1270
    0.7086    2.8122    9.7888
   -0.5050    4.1092    9.8406
   -1.0217    2.4133    9.7205
@<BUDE>CONF  16
   -0.2534    4.7245    3.0357
   -0.0774    3.3954    3.7300
   -0.1424    3.3400    5.1273
    0.0901    2.1445    5.8178
    0.3742    0.9857    5.0931
    0.3983    1.0225    3.6939
    0.1566    2.2189    3.0083
    0.1566    2.2183    1.5932
    0.1566    1.0668    0.9278
    0.1566   -0.0157    1.5529
    0.1566    1.0678   -0.4023
    0.1566   -0.2050   -1.1377
    0.1566    0.0757   -2.6396
    0.1566   -1.2317   -3.3951
    1.3659   -1.8378   -3.7558
    1.3706   -3.0537   -4.4500
    0.1655   -3.6714   -4.7856
   -1.0485   -3.0648   -4.4420
   -1.0494   -1.8473   -3.7508
    0.1723   -4.8727   -5.4441
   -0.7913   -5.0745   -6.4813
   -0.5834   -4.0461   -7.5672
   -1.3671   -3.1047   -7.6803
    0.4469   -4.1587   -8.4007
    0.0423    2.1018    7.2964
    0.2431    1.0733    7.8708
   -0.2282    3.2246    7.9953
   -0.2637    3.1344    9.4221
   -0.8210    4.5815    2.1186
    0.7233    5.1405    2.7971
   -0.7889    5.4076    3.6916
   -0.3786    4.2312    5.6897
    0.5768    0.0579    5.6073
    0.6012    0.1227    3.1322
    0.1566    3.0929    1.0882
    0.1566    1.9430   -0.9063
   -0.7320   -0.7751   -0.8746
    1.0451   -0.7751   -0.8746
    1.0451    0.6464   -2.9012
   -0.7320    0.6464   -2.9013
    2.3068   -1.3715   -3.5037
    2.3046   -3.5193   -4.7279
   -1.9786   -3.5398   -4.7171
   -1.9931   -1.3875   -3.4967
   -1.7931   -4.9709   -6.0699
   -0.6710   -6.0723   -6.8981
    0.5859   -3.4709   -9.1270
    1.0896   -4.9321   -8.3069
    0.7086    2.8122    9.7888
   -0.5050    4.1092    9.8406
   -1.0217    2.4133    9.7205
@<BUDE>CONF  17
   -2.4144    3.2383    1.4392
   -2.2384    1.9092    2.1335
   -2.3034    1.8538    3.5308
   -2.0709    0.6583    4.2213
   -1.7868   -0.5005    3.4966
   -1.7627   -0.4637    2.0974
   -2.0044    0.7327    1.4118
   -2.0044    0.7321   -0.0033
   -2.0044   -0.4194   -0.6687
   -2.0044   -1.5019   -0.0436
   -2.0044   -0.4184   -1.9988
   -2.0044   -1.6912   -2.7342
   -0.7473   -2.4836   -2.3790
    0.4738   -1.7151   -2.8246
    1.0049   -1.9153   -4.1044
    2.1325   -1.1996   -4.5243
    2.7343   -0.2779   -3.6672
    2.2189   -0.0825   -2.3803
    1.0930   -0.8023   -1.9626
    3.8234    0.4386   -4.0882
    4.8879    0.6503   -3.1570
    5.4537   -0.6826   -2.7291
    5.2033   -1.1257   -1.6093
    6.2225   -1.3769   -3.5634
   -2.1187    0.6156    5.6999
   -1.9179   -0.4129    6.2743
   -2.3892    1.7384    6.3988
   -2.4247    1.6482    7.8256
   -3.4350    3.3226    1.0721
   -1.7211    3.3047    0.6033
   -2.2136    4.0436    2.1426
   -2.5396    2.7450    4.0932
   -1.5842   -1.4283    4.0108
   -1.5598   -1.3635    1.5357
   -2.0044    1.6067   -0.5083
   -2.0044    0.4568   -2.5028
   -2.0178   -1.4914   -3.8037
   -2.8862   -2.2670   -2.4612
   -0.7731   -3.4480   -2.8819
   -0.7076   -2.6361   -1.3024
    0.5505   -2.6258   -4.7790
    2.5410   -1.3559   -5.5118
    2.6973    0.6215   -1.7155
    0.7090   -0.6458   -0.9654
    4.5071    1.1797   -2.2861
    5.6694    1.2421   -3.6289
    6.4274   -1.0121   -4.4826
    6.6009   -2.2684   -3.2772
   -1.4524    1.3260    8.1923
   -2.6660    2.6230    8.2441
   -3.1827    0.9271    8.1240
@<BUDE>CONF  18
   -2.4144    3.2383    1.4392
   -2.2384    1.9092    2.1335
   -2.3034    1.8538    3.5308
   -2.0709    0.6583    4.2213
   -1.7868   -0.5005    3.4966
   -1.7627   -0.4637    2.0974
   -2.0044    0.7327    1.4118
   -2.0044    0.7321   -0.0033
   -2.0044   -0.4194   -0.6687
   -2.0044   -1.5019   -0.0436
   -2.0044   -0.4184   -1.9988
   -2.0044   -1.6912   -2.7342
   -0.7473   -2.4836   -2.3790
    0.4738   -1.7151   -2.8246
    1.0049   -1.9153   -4.1044
    2.1325   -1.1996   -4.5243
    2.7343   -0.2779   -3.6672
    2.2189   -0.0825   -2.3803
    1.0930   -0.8023   -1.9626
    3.8234    0.4386   -4.0882
    4.8879    0.6503   -3.1570
    5.4537   -0.6826   -2.7291
    5.2033   -1.1257   -1.6093
    6.2225   -1.3769   -3.5634
   -2.1187    0.6156    5.6999
   -1.9179   -0.4129    6.2743
   -2.3892    1.7384    6.3988
   -2.4247    1.6482    7.8256
   -3.4350    3.3226    1.0721
   -1.7211    3.3047    0.6033
   -2.2136    4.0436    2.1426
   -2.5396    2.7450    4.0932
   -1.5842   -1.4283    4.0108
   -1.5598   -1.3635    1.5357
   -2.0044    1.6067   -0.5083
   -2.0044    0.4568   -2.5028
   -2.0178   -1.4914   -3.8037
   -2.8862   -2.2670   -2.4612
   -0.7731   -3.4480   -2.8819
   -0.7076   -2.6361   -1.3024
    0.5505   -2.6258   -4.7790
    2.5410   -1.3559   -5.5118
    2.6973    0.6215   -1.7155
    0.7090   -0.6458   -0.9654
    4.5071    1.1797   -2.2861
    5.6694    1.2421   -3.6289
    6.6009   -2.2684   -3.2772
    6.4274   -1.0121   -4.4826
   -1.4524    1.3260    8.1923
   -2.6660    2.6230    8.2441
   -3.1827    0.9271    8.1240
@<BUDE>CONF  19
   -1.7232    2.8729    2.6607
   -1.5472    1.5438    3.3550
   -1.6122    1.4884    4.7523
   -1.3797    0.2929    5.4428
   -1.0956   -0.8659    4.7181
   -1.0715   -0.8291    3.3189
   -1.3132    0.3673    2.6333
   -1.3132    0.3667    1.2182
   -1.3132   -0.7848    0.5528
   -1.3132   -1.8673    1.1779
   -1.3132   -0.7838   -0.7773
   -1.3132   -2.0566   -1.5127
   -1.3132   -1.7759   -3.0146
   -0.0444   -1.0481   -3.3898
   -0.0036    0.3511   -3.3757
    1.1728    1.0299   -3.7158
    2.3159    0.3126   -4.0700
    2.2795   -1.0865   -4.1013
    1.1004   -1.7618   -3.7638
    3.4727    0.9779   -4.3797
    4.2567    0.4879   -5.4708
    3.4393    0.5387   -6.7394
    2.9891   -0.4991   -7.2224
    3.2067    1.7055   -7.3338
   -1.4275    0.2502    6.9214
   -1.6669    1.2441    7.5401
   -1.2007   -0.9117    7.5703
   -1.2575   -0.9042    8.9992
   -2.7438    2.9572    2.2936
   -1.0299    2.9393    1.8248
   -1.5224    3.6782    3.3641
   -1.8484    2.3796    5.3147
   -0.8930   -1.7937    5.2323
   -0.8686   -1.7289    2.7572
   -1.3132    1.2413    0.7132
   -1.3132    0.0914   -1.2813
   -2.2018   -2.6267   -1.2496
   -0.4247   -2.6267   -1.2496
   -2.1736   -1.1601   -3.2678
   -1.3668   -2.7166   -3.5587
   -0.8804    0.9202   -3.1044
    1.2021    2.1094   -3.7050
    3.1628   -1.6365   -4.3903
    1.0846   -2.8412   -3.7973
    4.5535   -0.5394   -5.2707
    5.1442    1.1067   -5.5854
    2.6600    1.7395   -8.1823
    3.5768    2.5570   -6.9363
   -2.2521   -0.6018    9.3204
   -1.0419   -1.9020    9.3754
   -0.5217   -0.2029    9.3871
@<BUDE>CONF  20
   -1.7232    2.8729    2.6607
   -1.5472    1.5438    3.3550
   -1.6122    1.4884    4.7523
   -1.3797    0.2929    5.4428
   -1.0956   -0.8659    4.7181
   -1.0715   -0.8291    3.3189
   -1.3132    0.3673    2.6333
   -1.3132    0.3667    1.2182
   -1.3132   -0.7848    0.5528
   -1.3132   -1.8673    1.1779
   -1.3132   -0.7838   -0.7773
   -1.3132   -2.0566   -1.5127
   -1.3132   -1.7759   -3.0146
   -0.0444   -1.0481   -3.3898
   -0.0036    0.3511   -3.3757
    1.1728    1.0299   -3.7158
    2.3159    0.3126   -4.0700
    2.2795   -1.0865   -4.1013
    1.1004   -1.7618   -3.7638
    3.4727    0.9779   -4.3797
    4.2567    0.4879   -5.4708
    3.4393    0.5387   -6.7394
    2.9891   -0.4991   -7.2224
    3.2067    1.7055   -7.3338
   -1.4275    0.2502    6.9214
   -1.6669    1.2441    7.5401
   -1.2007   -0.9117    7.5703
   -1.2575   -0.9042    8.9992
   -2.7438    2.9572    2.2936
   -1.0299    2.9393    1.8248
   -1.5224    3.6782    3.3641
   -1.8484    2.3796    5.3147
   -0.8930   -1.7937    5.2323
   -0.8686   -1.7289    2.7572
   -1.3132    1.2413    0.7132
   -1.3132    0.0914   -1.2813
   -2.2018   -2.6267   -1.2496
   -0.4247   -2.6267   -1.2496
   -2.1736   -1.1601   -3.2678
   -1.3668   -2.7166   -3.5587
   -0.8804    0.9202   -3.1044
    1.2021    2.1094   -3.7050
    3.1628   -1.6365   -4.3903
    1.0846   -2.8412   -3.7973
    4.5535   -0.5394   -5.2707
    5.1442    1.1067   -5.5854
    3.5768    2.5570   -6.9363
    2.6600    1.7395   -8.1823
   -2.2521   -0.6018    9.3204
   -1.0419   -1.9020    9.3754
   -0.5217   -0.2029    9.3871
@<BUDE>CONF  21
    1.7873    3.0974    1.7060
    1.9633    1.7683    2.4003
    1.8983    1.7129    3.7976
    2.1308    0.5174    4.4881
    2.4149   -0.6414    3.7634
    2.4390   -0.6046    2.3642
    2.1973    0.5918    1.6786
    2.1973    0.5912    0.2635
    2.1973   -0.5603   -0.4019
    2.1973   -1.6428    0.2232
    2.1973   -0.5593   -1.7320
    2.1973   -1.8321   -2.4674
    0.9402   -2.6245   -2.1122
   -0.2809   -1.8560   -2.5578
   -0.9011   -0.9512   -1.6880
   -2.0290   -0.2312   -2.0995
   -2.5421   -0.4106   -3.3845
   -1.9372   -1.3245   -4.2556
   -0.8113   -2.0452   -3.8395
   -3.6317    0.3120   -3.7936
   -4.6251   -0.3567   -4.5752
   -5.7311    0.6125   -4.9179
   -5.8227    1.0619   -6.0592
   -6.6056    0.9796   -3.9854
    2.0830    0.4747    5.9667
    2.2838   -0.5538    6.5411
    1.8125    1.5975    6.6656
    1.7770    1.5073    8.0924
    1.2197    2.9544    0.7889
    2.7640    3.5134    1.4674
    1.2518    3.7805    2.3619
    1.6621    2.6041    4.3600
    2.6175   -1.5692    4.2776
    2.6419   -1.5044    1.8025
    2.1973    1.4658   -0.2415
    2.1973    0.3159   -2.2360
    3.0791   -2.4080   -2.1943
    2.2108   -1.6323   -3.5368
    0.9005   -2.7771   -1.0357
    0.9660   -3.5890   -2.6151
   -0.5161   -0.8020   -0.6901
   -2.5064    0.4659   -1.4268
   -2.3470   -1.4704   -5.2441
   -0.3577   -2.7509   -4.5197
   -5.0344   -1.1884   -4.0056
   -4.1734   -0.7311   -5.4914
   -6.5295    0.6099   -3.0487
   -7.3454    1.6278   -4.2147
    2.7493    1.1851    8.4591
    1.5357    2.4821    8.5109
    1.0190    0.7862    8.3908
@<BUDE>CONF  22
    1.7873    3.0974    1.7060
    1.9633    1.7683    2.4003
    1.8983    1.7129    3.7976
    2.1308    0.5174    4.4881
    2.4149   -0.6414    3.7634
    2.4390   -0.6046    2.3642
    2.1973    0.5918    1.6786
    2.1973    0.5912    0.2635
    2.1973   -0.5603   -0.4019
    2.1973   -1.6428    0.2232
    2.1973   -0.5593   -1.7320
    2.1973   -1.8321   -2.4674
    0.9402   -2.6245   -2.1122
   -0.2809   -1.8560   -2.5578
   -0.9011   -0.9512   -1.6880
   -2.0290   -0.2312   -2.0995
   -2.5421   -0.4106   -3.3845
   -1.9372   -1.3245   -4.2556
   -0.8113   -2.0452   -3.8395
   -3.6317    0.3120   -3.7936
   -4.6251   -0.3567   -4.5752
   -5.7311    0.6125   -4.9179
   -5.8227    1.0619   -6.0592
   -6.6056    0.9796   -3.9854
    2.0830    0.4747    5.9667
    2.2838   -0.5538    6.5411
    1.8125    1.5975    6.6656
    1.7770    1.5073    8.0924
    1.2197    2.9544    0.7889
    2.7640    3.5134    1.4674
    1.2518    3.7805    2.3619
    1.6621    2.6041    4.3600
    2.6175   -1.5692    4.2776
    2.6419   -1.5044    1.8025
    2.1973    1.4658   -0.2415
    2.1973    0.3159   -2.2360
    3.0791   -2.4080   -2.1943
    2.2108   -1.6323   -3.5368
    0.9005   -2.7771   -1.0357
    0.9660   -3.5890   -2.6151
   -0.5161   -0.8020   -0.6901
   -2.5064    0.4659   -1.4268
   -2.3470   -1.4704   -5.2441
   -0.3577   -2.7509   -4.5197
   -5.0344   -1.1884   -4.0056
   -4.1734   -0.7311   -5.4914
   -7.3454    1.6278   -4.2147
   -6.5295    0.6099   -3.0487
    2.7493    1.1851    8.4591
    1.5357    2.4821    8.5109
    1.0190    0.7862    8.3908
@<BUDE>CONF  23
   -0.2886    5.1476    2.9885
   -0.1126    3.8185    3.6828
   -0.1776    3.7631    5.0801
    0.0549    2.5676    5.7706
    0.3390    1.4088    5.0459
    0.3631    1.4456    3.6467
    0.1214    2.6420    2.9611
    0.1214    2.6414    1.5460
    0.1214    1.4899    0.8806
    0.1214    0.4074    1.5057
    0.1214    1.4909   -0.4495
    0.1214    0.2181   -1.1849
    0.1214    0.4988   -2.6868
    0.1214   -0.8086   -3.4423
    1.3307   -1.4147   -3.8030
    1.3354   -2.6306   -4.4972
    0.1303   -3.2483   -4.8328
   -1.0837   -2.6417   -4.4892
   -1.0846   -1.4242   -3.7980
    0.1371   -4.4496   -5.4913
   -0.8265   -4.6514   -6.5285
   -0.6476   -6.0294   -7.1194
   -1.4533   -6.9207   -6.8555
    0.3811   -6.2787   -7.9248
    0.0071    2.5249    7.2492
   -0.2323    3.5188    7.8679
    0.2339    1.3630    7.8981
    0.1771    1.3705    9.3270
   -0.8562    5.0046    2.0714
    0.6881    5.5636    2.7499
   -0.8241    5.8307    3.6444
   -0.4138    4.6543    5.6425
    0.5416    0.4810    5.5601
    0.5660    0.5458    3.0850
    0.1214    3.5160    1.0410
    0.1214    2.3661   -0.9535
   -0.7672   -0.3520   -0.9218
    1.0099   -0.3520   -0.9218
    1.0099    1.0695   -2.9484
   -0.7672    1.0695   -2.9485
    2.2716   -0.9484   -3.5509
    2.2694   -3.0962   -4.7751
   -2.0138   -3.1167   -4.7643
   -2.0283   -0.9644   -3.5439
   -0.6853   -3.9022   -7.3046
   -1.8286   -4.5610   -6.1143
    1.0420   -5.5461   -8.1407
    0.5008   -7.2004   -8.3200
   -0.8175    1.6729    9.6482
    0.3927    0.3727    9.7032
    0.9129    2.0718    9.7149
@<BUDE>CONF  24
   -0.2886    5.1476    2.9885
   -0.1126    3.8185    3.6828
   -0.1776    3.7631    5.0801
    0.0549    2.5676    5.7706
    0.3390    1.4088    5.0459
    0.3631    1.4456    3.6467
    0.1214    2.6420    2.9611
    0.1214    2.6414    1.5460
    0.1214    1.4899    0.8806
    0.1214    0.4074    1.5057
    0.1214    1.4909   -0.4495
    0.1214    0.2181   -1.1849
    0.1214    0.4988   -2.6868
    0.1214   -0.8086   -3.4423
    1.3307   -1.4147   -3.8030
    1.3354   -2.6306   -4.4972
    0.1303   -3.2483   -4.8328
   -1.0837   -2.6417   -4.4892
   -1.0846   -1.4242   -3.7980
    0.1371   -4.4496   -5.4913
   -0.8265   -4.6514   -6.5285
   -0.6476   -6.0294   -7.1194
   -1.4533   -6.9207   -6.8555
    0.3811   -6.2787   -7.9248
    0.0071    2.5249    7.2492
   -0.2323    3.5188    7.8679
    0.2339    1.3630    7.8981
    0.1771    1.3705    9.3270
   -0.8562    5.0046    2.0714
    0.6881    5.5636    2.7499
   -0.8241    5.8307    3.6444
   -0.4138    4.6543    5.6425
    0.5416    0.4810    5.5601
    0.5660    0.5458    3.0850
    0.1214    3.5160    1.0410
    0.1214    2.3661   -0.9535
   -0.7672   -0.3520   -0.9218
    1.0099   -0.3520   -0.9218
    1.0099    1.0695   -2.9484
   -0.7672    1.0695   -2.9485
    2.2716   -0.9484   -3.5509
    2.2694   -3.0962   -4.7751
   -2.0138   -3.1167   -4.7643
   -2.0283   -0.9644   -3.5439
   -0.6853   -3.9022   -7.3046
   -1.8286   -4.5610   -6.1143
    0.5007   -7.2004   -8.3200
    1.0420   -5.5461   -8.1408
   -0.8175    1.6729    9.6482
    0.3927    0.3727    9.7032
    0.9129    2.0718    9.7149
@<BUDE>CONF  25
   -1.9333    2.7885    2.5476
   -1.7573    1.4594    3.2419
   -1.8223    1.4040    4.6392
   -1.5898    0.2085    5.3297
   -1.3057   -0.9503    4.6050
   -1.2816   -0.9135    3.2058
   -1.5233    0.2829    2.5202
   -1.5233    0.2823    1.1051
   -1.5233   -0.8692    0.4397
   -1.5233   -1.9517    1.0648
   -1.5233   -0.8682   -0.8904
   -1.5233   -2.1410   -1.6258
   -1.5233   -1.8603   -3.1277
   -0.2545   -1.1325   -3.5029
   -0.2137    0.2667   -3.4888
    0.9627    0.9455   -3.8289
    2.1058    0.2282   -4.1831
    2.0694   -1.1709   -4.2144
    0.8903   -1.8462   -3.8769
    3.2626    0.8935   -4.4928
    4.0466    0.4035   -5.5839
    5.2690    1.2734   -5.7547
    6.3722    0.8593   -5.4016
    5.1521    2.4867   -6.2868
   -1.6376    0.1658    6.8083
   -1.8770    1.1597    7.4270
   -1.4108   -0.9961    7.4572
   -1.4676   -0.9886    8.8861
   -2.9539    2.8728    2.1805
   -1.2400    2.8549    1.7117
   -1.7325    3.5938    3.2510
   -2.0585    2.2952    5.2016
   -1.1031   -1.8781    5.1192
   -1.0787   -1.8133    2.6441
   -1.5233    1.1569    0.6001
   -1.5233    0.0070   -1.3944
   -2.4119   -2.7111   -1.3627
   -0.6348   -2.7111   -1.3627
   -2.3837   -1.2445   -3.3809
   -1.5769   -2.8010   -3.6718
   -1.0905    0.8358   -3.2175
    0.9920    2.0250   -3.8181
    2.9527   -1.7209   -4.5034
    0.8745   -2.9256   -3.9104
    3.4533    0.4276   -6.4955
    4.3546   -0.6194   -5.3777
    4.2459    2.8256   -6.5763
    5.9698    3.0685   -6.4010
   -2.4622   -0.6862    9.2073
   -1.2520   -1.9864    9.2623
   -0.7318   -0.2873    9.2740
@<BUDE>CONF  26
   -1.9333    2.7885    2.5476
   -1.7573    1.4594    3.2419
   -1.8223    1.4040    4.6392
   -1.5898    0.2085    5.3297
   -1.3057   -0.9503    4.6050
   -1.2816   -0.9135    3.2058
   -1.5233    0.2829    2.5202
   -1.5233    0.2823    1.1051
   -1.5233   -0.8692    0.4397
   -1.5233   -1.9517    1.0648
   -1.5233   -0.8682   -0.8904
   -1.5233   -2.1410   -1.6258
   -1.5233   -1.8603   -3.1277
   -0.2545   -1.1325   -3.5029
   -0.2137    0.2667   -3.4888
    0.9627    0.9455   -3.8289
    2.1058    0.2282   -4.1831
    2.0694   -1.1709   -4.2144
    0.8903   -1.8462   -3.8769
    3.2626    0.8935   -4.4928
    4.0466    0.4035   -5.5839
    5.2690    1.2734   -5.7547
    6.3722    0.8593   -5.4016
    5.1521    2.4867   -6.2868
   -1.6376    0.1658    6.8083
   -1.8770    1.1597    7.4270
   -1.4108   -0.9961    7.4572
   -1.4676   -0.9886    8.8861
   -2.9539    2.8728    2.1805
   -1.2400    2.8549    1.7117
   -1.7325    3.5938    3.2510
   -2.0585    2.2952    5.2016
   -1.1031   -1.8781    5.1192
   -1.0787   -1.8133    2.6441
   -1.5233    1.1569    0.6001
   -1.5233    0.0070   -1.3944
   -2.4119   -2.7111   -1.3627
   -0.6348   -2.7111   -1.3627
   -2.3837   -1.2445   -3.3809
   -1.5769   -2.8010   -3.6718
   -1.0905    0.8358   -3.2175
    0.9920    2.0250   -3.8181
    2.9527   -1.7209   -4.5034
    0.8745   -2.9256   -3.9104
    3.4533    0.4276   -6.4955
    4.3546   -0.6194   -5.3777
    5.9697    3.0685   -6.4010
    4.2459    2.8256   -6.5763
   -2.4622   -0.6862    9.2073
   -1.2520   -1.9864    9.2623
   -0.7318   -0.2873    9.2740
@<BUDE>CONF  27
   -0.4597    1.3109    3.0368
   -0.2837   -0.0182    3.7311
   -0.3487   -0.0736    5.1284
   -0.1162   -1.2691    5.8189
    0.1679   -2.4279    5.0942
    0.1920   -2.3911    3.6950
   -0.0497   -1.1947    3.0094
   -0.0497   -1.1953    1.5943
   -0.0497   -2.3468    0.9289
   -0.0497   -3.4293    1.5540
   -0.0497   -2.3458   -0.4012
   -0.0497   -1.0720   -1.1347
   -0.0497   -1.3504   -2.6370
   -0.0497   -0.0418   -3.3905
   -1.2590    0.5648   -3.7504
   -1.2637    1.7817   -4.4427
   -0.0586    2.3999   -4.7774
    1.1554    1.7927   -4.4348
    1.1563    0.5742   -3.7453
   -0.0654    3.6022   -5.4341
    0.8982    3.8055   -6.4710
    0.6903    2.7787   -7.5585
    1.4740    1.8375   -7.6730
   -0.3400    2.8926   -8.3918
   -0.1640   -1.3118    7.2975
   -0.4034   -0.3179    7.9162
    0.0628   -2.4737    7.9464
    0.0060   -2.4662    9.3753
   -1.0273    1.1679    2.1197
    0.5170    1.7269    2.7982
   -0.9952    1.9940    3.6927
   -0.5849    0.8176    5.6908
    0.3705   -3.3557    5.6084
    0.3949   -3.2909    3.1333
   -0.0497   -0.3207    1.0893
   -0.0497   -3.2203   -0.9065
    0.8389   -0.5022   -0.8708
   -0.9382   -0.5023   -0.8707
   -0.9382   -1.9208   -2.8995
    0.8389   -1.9208   -2.8995
   -2.1999    0.0981   -3.4990
   -2.1977    2.2477   -4.7199
    2.0855    2.2682   -4.7091
    2.1000    0.1141   -3.4919
    1.9000    3.7014   -6.0597
    0.7779    4.8039   -6.8863
   -0.4790    2.2059   -9.1191
   -0.9827    3.6658   -8.2968
   -0.9886   -2.1638    9.6965
    0.2216   -3.4640    9.7515
    0.7418   -1.7649    9.7632
@<BUDE>CONF  28
   -0.4597    1.3109    3.0368
   -0.2837   -0.0182    3.7311
   -0.3487   -0.0736    5.1284
   -0.1162   -1.2691    5.8189
    0.1679   -2.4279    5.0942
    0.1920   -2.3911    3.6950
   -0.0497   -1.1947    3.0094
   -0.0497   -1.1953    1.5943
   -0.0497   -2.3468    0.9289
   -0.0497   -3.4293    1.5540
   -0.0497   -2.3458   -0.4012
   -0.0497   -1.0720   -1.1347
   -0.0497   -1.3504   -2.6370
   -0.0497   -0.0418   -3.3905
   -1.2590    0.5648   -3.7504
   -1.2637    1.7817   -4.4427
   -0.0586    2.3999   -4.7774
    1.1554    1.7927   -4.4348
    1.1563    0.5742   -3.7453
   -0.0654    3.6022   -5.4341
    0.8982    3.8055   -6.4710
    0.6903    2.7787   -7.5585
    1.4740    1.8375   -7.6730
   -0.3400    2.8926   -8.3918
   -0.1640   -1.3118    7.2975
   -0.4034   -0.3179    7.9162
    0.0628   -2.4737    7.9464
    0.0060   -2.4662    9.3753
   -1.0273    1.1679    2.1197
    0.5170    1.7269    2.7982
   -0.9952    1.9940    3.6927
   -0.5849    0.8176    5.6908
    0.3705   -3.3557    5.6084
    0.3949   -3.2909    3.1333
   -0.0497   -0.3207    1.0893
   -0.0497   -3.2203   -0.9065
    0.8389   -0.5022   -0.8708
   -0.9382   -0.5023   -0.8707
   -0.9382   -1.9208   -2.8995
    0.8389   -1.9208   -2.8995
   -2.1999    0.0981   -3.4990
   -2.1977    2.2477   -4.7199
    2.0855    2.2682   -4.7091
    2.1000    0.1141   -3.4919
    1.9000    3.7014   -6.0597
    0.7779    4.8039   -6.8863
   -0.9827    3.6658   -8.2968
   -0.4790    2.2059   -9.1191
   -0.9886   -2.1638    9.6965
    0.2216   -3.4640    9.7515
    0.7418   -1.7649    9.7632
@<BUDE>CONF  29
   -1.6850    2.6977    2.6569
   -1.5090    1.3686    3.3512
   -1.5740    1.3132    4.7485
   -1.3415    0.1177    5.4390
   -1.0574   -1.0411    4.7143
   -1.0333   -1.0043    3.3151
   -1.2750    0.1921    2.6295
   -1.2750    0.1915    1.2144
   -1.2750   -0.9600    0.5490
   -1.2750   -2.0425    1.1741
   -1.2750   -0.9590   -0.7811
   -1.2750   -2.2318   -1.5165
   -1.2750   -1.9511   -3.0184
   -0.0062   -1.2233   -3.3936
    0.0346    0.1759   -3.3795
    1.2110    0.8547   -3.7196
    2.3541    0.1374   -4.0738
    2.3177   -1.2617   -4.1051
    1.1386   -1.9370   -3.7676
    3.5109    0.8027   -4.3835
    4.2949    0.3127   -5.4746
    3.4775    0.3635   -6.7432
    3.0273   -0.6743   -7.2262
    3.2449    1.5303   -7.3376
   -1.3893    0.0750    6.9176
   -1.1885   -0.9535    7.4920
   -1.6598    1.1978    7.6165
   -1.6953    1.1076    9.0433
   -2.7056    2.7820    2.2898
   -0.9917    2.7641    1.8210
   -1.4842    3.5030    3.3603
   -1.8102    2.2044    5.3109
   -0.8548   -1.9689    5.2285
   -0.8304   -1.9041    2.7534
   -1.2750    1.0661    0.7094
   -1.2750   -0.0838   -1.2851
   -2.1636   -2.8019   -1.2534
   -0.3865   -2.8019   -1.2534
   -2.1354   -1.3353   -3.2716
   -1.3286   -2.8918   -3.5625
   -0.8422    0.7450   -3.1082
    1.2403    1.9342   -3.7088
    3.2010   -1.8117   -4.3941
    1.1228   -3.0164   -3.8011
    4.5917   -0.7146   -5.2745
    5.1824    0.9315   -5.5892
    2.6982    1.5643   -8.1861
    3.6150    2.3818   -6.9401
   -0.7230    0.7854    9.4100
   -1.9366    2.0824    9.4618
   -2.4533    0.3865    9.3417
@<BUDE>CONF  30
   -1.6850    2.6977    2.6569
   -1.5090    1.3686    3.3512
   -1.5740    1.3132    4.7485
   -1.3415    0.1177    5.4390
   -1.0574   -1.0411    4.7143
   -1.0333   -1.0043    3.3151
   -1.2750    0.1921    2.6295
   -1.2750    0.1915    1.2144
   -1.2750   -0.9600    0.5490
   -1.2750   -2.0425    1.1741
   -1.2750   -0.9590   -0.7811
   -1.2750   -2.2318   -1.5165
   -1.2750   -1.9511   -3.0184
   -0.0062   -1.2233   -3.3936
    0.0346    0.1759   -3.3795
    1.2110    0.8547   -3.7196
    2.3541    0.1374   -4.0738
    2.3177   -1.2617   -4.1051
    1.1386   -1.9370   -3.7676
    3.5109    0.8027   -4.3835
    4.2949    0.3127   -5.4746
    3.4775    0.3635   -6.7432
    3.0273   -0.6743   -7.2262
    3.2449    1.5303   -7.3376
   -1.3893    0.0750    6.9176
   -1.1885   -0.9535    7.4920
   -1.6598    1.1978    7.6165
   -1.6953    1.1076    9.0433
   -2.7056    2.7820    2.2898
   -0.9917    2.7641    1.8210
   -1.4842    3.5030    3.3603
   -1.8102    2.2044    5.3109
   -0.8548   -1.9689    5.2285
   -0.8304   -1.9041    2.7534
   -1.2750    1.0661    0.7094
   -1.2750   -0.0838   -1.2851
   -2.1636   -2.8019   -1.2534
   -0.3865   -2.8019   -1.2534
   -2.1354   -1.3353   -3.2716
   -1.3286   -2.8918   -3.5625
   -0.8422    0.7450   -3.1082
    1.2403    1.9342   -3.7088
    3.2010   -1.8117   -4.3941
    1.1228   -3.0164   -3.8011
    4.5917   -0.7146   -5.2745
    5.1824    0.9315   -5.5892
    3.6150    2.3818   -6.9401
    2.6982    1.5643   -8.1861
   -0.7230    0.7854    9.4100
   -1.9366    2.0824    9.4618
   -2.4533    0.3865    9.3417
@<BUDE>CONF  31
   -0.2505    4.9724    2.9847
   -0.0745    3.6433    3.6790
   -0.1395    3.5879    5.0763
    0.0930    2.3924    5.7668
    0.3771    1.2336    5.0421
    0.4012    1.2704    3.6429
    0.1595    2.4668    2.9573
    0.1595    2.4662    1.5422
    0.1595    1.3147    0.8768
    0.1595    0.2322    1.5019
    0.1595    1.3157   -0.4533
    0.1595    0.0429   -1.1887
    0.1595    0.3236   -2.6906
    0.1595   -0.9838   -3.4461
    1.3688   -1.5899   -3.8068
    1.3735   -2.8058   -4.5010
    0.1684   -3.4235   -4.8366
   -1.0456   -2.8169   -4.4930
   -1.0465   -1.5994   -3.8018
    0.1752   -4.6248   -5.4951
   -0.7884   -4.8266   -6.5323
   -0.6095   -6.2046   -7.1232
   -1.4152   -7.0959   -6.8593
    0.4192   -6.4539   -7.9286
    0.0452    2.3497    7.2454
    0.2460    1.3212    7.8198
   -0.2253    3.4725    7.9443
   -0.2608    3.3823    9.3711
   -0.8181    4.8294    2.0676
    0.7262    5.3884    2.7461
   -0.7860    5.6555    3.6406
   -0.3757    4.4791    5.6387
    0.5797    0.3058    5.5563
    0.6041    0.3706    3.0812
    0.1595    3.3408    1.0372
    0.1595    2.1909   -0.9573
   -0.7291   -0.5272   -0.9256
    1.0480   -0.5272   -0.9256
    1.0480    0.8943   -2.9522
   -0.7291    0.8943   -2.9523
    2.3097   -1.1236   -3.5547
    2.3075   -3.2714   -4.7789
   -1.9757   -3.2919   -4.7681
   -1.9902   -1.1396   -3.5477
   -0.6472   -4.0774   -7.3084
   -1.7905   -4.7362   -6.1181
    0.5388   -7.3756   -8.3238
    1.0801   -5.7213   -8.1446
    0.7115    3.0601    9.7378
   -0.5021    4.3571    9.7896
   -1.0188    2.6612    9.6695
@<BUDE>CONF  32
   -0.2505    4.9724    2.9847
   -0.0745    3.6433    3.6790
   -0.1395    3.5879    5.0763
    0.0930    2.3924    5.7668
    0.3771    1.2336    5.0421
    0.4012    1.2704    3.6429
    0.1595    2.4668    2.9573
    0.1595    2.4662    1.5422
    0.1595    1.3147    0.8768
    0.1595    0.2322    1.5019
    0.1595    1.3157   -0.4533
    0.1595    0.0429   -1.1887
    0.1595    0.3236   -2.6906
    0.1595   -0.9838   -3.4461
    1.3688   -1.5899   -3.8068
    1.3735   -2.8058   -4.5010
    0.1684   -3.4235   -4.8366
   -1.0456   -2.8169   -4.4930
   -1.0465   -1.5994   -3.8018
    0.1752   -4.6248   -5.4951
   -0.7884   -4.8266   -6.5323
   -0.6095   -6.2046   -7.1232
   -1.4152   -7.0959   -6.8593
    0.4192   -6.4539   -7.9286
    0.0452    2.3497    7.2454
    0.2460    1.3212    7.8198
   -0.2253    3.4725    7.9443
   -0.2608    3.3823    9.3711
   -0.8181    4.8294    2.0676
    0.7262    5.3884    2.7461
   -0.7860    5.6555    3.6406
   -0.3757    4.4791    5.6387
    0.5797    0.3058    5.5563
    0.6041    0.3706    3.0812
    0.1595    3.3408    1.0372
    0.1595    2.1909   -0.9573
   -0.7291   -0.5272   -0.9256
    1.0480   -0.5272   -0.9256
    1.0480    0.8943   -2.9522
   -0.7291    0.8943   -2.9523
    2.3097   -1.1236   -3.5547
    2.3075   -3.2714   -4.7789
   -1.9757   -3.2919   -4.7681
   -1.9902   -1.1396   -3.5477
   -0.6472   -4.0774   -7.3084
   -1.7905   -4.7362   -6.1181
    1.0801   -5.7213   -8.1445
    0.5389   -7.3756   -8.3238
    0.7115    3.0601    9.7378
   -0.5021    4.3571    9.7896
   -1.0188    2.6612    9.6695
@<BUDE>CONF  33
   -0.4215    1.1357    3.0330
   -0.2455   -0.1934    3.7273
   -0.3105   -0.2488    5.1246
   -0.0780   -1.4443    5.8151
    0.2061   -2.6031    5.0904
    0.2302   -2.5663    3.6912
   -0.0115   -1.3699    3.0056
   -0.0115   -1.3705    1.5905
   -0.0115   -2.5220    0.9251
   -0.0115   -3.6045    1.5502
   -0.0115   -2.5210   -0.4050
   -0.0115   -1.2472   -1.1385
   -0.0115   -1.5256   -2.6408
   -0.0115   -0.2170   -3.3943
   -1.2208    0.3896   -3.7542
   -1.2255    1.6065   -4.4465
   -0.0204    2.2247   -4.7812
    1.1936    1.6175   -4.4386
    1.1945    0.3990   -3.7491
   -0.0272    3.4270   -5.4379
    0.9364    3.6303   -6.4748
    0.7285    2.6035   -7.5623
    1.5122    1.6623   -7.6768
   -0.3018    2.7174   -8.3956
   -0.1258   -1.4870    7.2937
    0.0750   -2.5155    7.8681
   -0.3963   -0.3642    7.9926
   -0.4318   -0.4544    9.4194
   -0.9891    0.9927    2.1159
    0.5552    1.5517    2.7944
   -0.9570    1.8188    3.6889
   -0.5467    0.6424    5.6870
    0.4087   -3.5309    5.6046
    0.4331   -3.4661    3.1295
   -0.0115   -0.4959    1.0855
   -0.0115   -3.3955   -0.9103
    0.8771   -0.6774   -0.8746
   -0.9000   -0.6775   -0.8745
   -0.9000   -2.0960   -2.9033
    0.8771   -2.0960   -2.9033
   -2.1617   -0.0771   -3.5028
   -2.1595    2.0725   -4.7237
    2.1237    2.0930   -4.7129
    2.1382   -0.0611   -3.4957
    1.9382    3.5262   -6.0635
    0.8161    4.6287   -6.8901
   -0.9445    3.4906   -8.3006
   -0.4408    2.0307   -9.1229
    0.5405   -0.7766    9.7861
   -0.6731    0.5204    9.8379
   -1.1898   -1.1755    9.7178
@<BUDE>CONF  34
   -0.4215    1.1357    3.0330
   -0.2455   -0.1934    3.7273
   -0.3105   -0.2488    5.1246
   -0.0780   -1.4443    5.8151
    0.2061   -2.6031    5.0904
    0.2302   -2.5663    3.6912
   -0.0115   -1.3699    3.0056
   -0.0115   -1.3705    1.5905
   -0.0115   -2.5220    0.9251
   -0.0115   -3.6045    1.5502
   -0.0115   -2.5210   -0.4050
   -0.0115   -1.2472   -1.1385
   -0.0115   -1.5256   -2.6408
   -0.0115   -0.2170   -3.3943
   -1.2208    0.3896   -3.7542
   -1.2255    1.6065   -4.4465
   -0.0204    2.2247   -4.7812
    1.1936    1.6175   -4.4386
    1.1945    0.3990   -3.7491
   -0.0272    3.4270   -5.4379
    0.9364    3.6303   -6.4748
    0.7285    2.6035   -7.5623
    1.5122    1.6623   -7.6768
   -0.3018    2.7174   -8.3956
   -0.1258   -1.4870    7.2937
    0.0750   -2.5155    7.8681
   -0.3963   -0.3642    7.9926
   -0.4318   -0.4544    9.4194
   -0.9891    0.9927    2.1159
    0.5552    1.5517    2.7944
   -0.9570    1.8188    3.6889
   -0.5467    0.6424    5.6870
    0.4087   -3.5309    5.6046
    0.4331   -3.4661    3.1295
   -0.0115   -0.4959    1.0855
   -0.0115   -3.3955   -0.9103
    0.8771   -0.6774   -0.8746
   -0.9000   -0.6775   -0.8745
   -0.9000   -2.0960   -2.9033
    0.8771   -2.0960   -2.9033
   -2.1617   -0.0771   -3.5028
   -2.1595    2.0725   -4.7237
    2.1237    2.0930   -4.7129
    2.1382   -0.0611   -3.4957
    1.9382    3.5262   -6.0635
    0.8161    4.6287   -6.8901
   -0.4408    2.0307   -9.1229
   -0.9445    3.4906   -8.3006
    0.5405   -0.7766    9.7861
   -0.6731    0.5204    9.8379
   -1.1898   -1.1755    9.7178
@<BUDE>CONF  35
   -0.4627    1.0630    2.9854
   -0.2867   -0.2661    3.6797
   -0.3517   -0.3215    5.0770
   -0.1192   -1.5170    5.7675
    0.1649   -2.6758    5.0428
    0.1890   -2.6390    3.6436
   -0.0527   -1.4426    2.9580
   -0.0527   -1.4432    1.5429
   -0.0527   -2.5947    0.8775
   -0.0527   -3.6772    1.5026
   -0.0527   -2.5937   -0.4526
   -0.0527   -1.3199   -1.1861
   -0.0527   -1.5983   -2.6884
   -0.0527   -0.2897   -3.4419
   -1.2620    0.3169   -3.8018
   -1.2667    1.5338   -4.4941
   -0.0616    2.1520   -4.8288
    1.1524    1.5448   -4.4862
    1.1533    0.3263   -3.7967
   -0.0684    3.3543   -5.4855
    0.8952    3.5576   -6.5224
    0.7163    4.9365   -7.1112
    1.5220    5.8274   -6.8460
   -0.3124    5.1870   -7.9163
   -0.1670   -1.5597    7.2461
   -0.4064   -0.5658    7.8648
    0.0598   -2.7216    7.8950
    0.0030   -2.7141    9.3239
   -1.0303    0.9200    2.0683
    0.5140    1.4790    2.7468
   -0.9982    1.7461    3.6413
   -0.5879    0.5697    5.6394
    0.3675   -3.6036    5.5570
    0.3919   -3.5388    3.0819
   -0.0527   -0.5686    1.0379
   -0.0527   -3.4682   -0.9579
    0.8359   -0.7501   -0.9222
   -0.9412   -0.7502   -0.9221
   -0.9412   -2.1687   -2.9509
    0.8359   -2.1687   -2.9509
   -2.2029   -0.1498   -3.5504
   -2.2007    1.9998   -4.7713
    2.0825    2.0203   -4.7605
    2.0970   -0.1338   -3.5433
    0.7540    2.8096   -7.2996
    1.8973    3.4666   -6.1084
   -0.9733    4.4548   -8.1333
   -0.4320    6.1093   -8.3101
   -0.9916   -2.4117    9.6451
    0.2186   -3.7119    9.7001
    0.7388   -2.0128    9.7118
@<BUDE>CONF  36
   -0.4627    1.0630    2.9854
   -0.2867   -0.2661    3.6797
   -0.3517   -0.3215    5.0770
   -0.1192   -1.5170    5.7675
    0.1649   -2.6758    5.0428
    0.1890   -2.6390    3.6436
   -0.0527   -1.4426    2.9580
   -0.0527   -1.4432    1.5429
   -0.0527   -2.5947    0.8775
   -0.0527   -3.6772    1.5026
   -0.0527   -2.5937   -0.4526
   -0.0527   -1.3199   -1.1861
   -0.0527   -1.5983   -2.6884
   -0.0527   -0.2897   -3.4419
   -1.2620    0.3169   -3.8018
   -1.2667    1.5338   -4.4941
   -0.0616    2.1520   -4.8288
    1.1524    1.5448   -4.4862
    1.1533    0.3263   -3.7967
   -0.0684    3.3543   -5.4855
    0.8952    3.5576   -6.5224
    0.7163    4.9365   -7.1112
    1.5220    5.8274   -6.8460
   -0.3124    5.1870   -7.9163
   -0.1670   -1.5597    7.2461
   -0.4064   -0.5658    7.8648
    0.0598   -2.7216    7.8950
    0.0030   -2.7141    9.3239
   -1.0303    0.9200    2.0683
    0.5140    1.4790    2.7468
   -0.9982    1.7461    3.6413
   -0.5879    0.5697    5.6394
    0.3675   -3.6036    5.5570
    0.3919   -3.5388    3.0819
   -0.0527   -0.5686    1.0379
   -0.0527   -3.4682   -0.9579
    0.8359   -0.7501   -0.9222
   -0.9412   -0.7502   -0.9221
   -0.9412   -2.1687   -2.9509
    0.8359   -2.1687   -2.9509
   -2.2029   -0.1498   -3.5504
   -2.2007    1.9998   -4.7713
    2.0825    2.0203   -4.7605
    2.0970   -0.1338   -3.5433
    0.7540    2.8096   -7.2996
    1.8973    3.4666   -6.1084
   -0.4320    6.1093   -8.3101
   -0.9733    4.4548   -8.1333
   -0.9916   -2.4117    9.6451
    0.2186   -3.7119    9.7001
    0.7388   -2.0128    9.7118
@<BUDE>CONF  37
   -0.4245    0.8878    2.9816
   -0.2485   -0.4413    3.6759
   -0.3135   -0.4967    5.0732
   -0.0810   -1.6922    5.7637
    0.2031   -2.8510    5.0390
    0.2272   -2.8142    3.6398
   -0.0145   -1.6178    2.9542
   -0.0145   -1.6184    1.5391
   -0.0145   -2.7699    0.8737
   -0.0145   -3.8524    1.4988
   -0.0145   -2.7689   -0.4564
   -0.0145   -1.4951   -1.1899
   -0.0145   -1.7735   -2.6922
   -0.0145   -0.4649   -3.4457
   -1.2238    0.1417   -3.8056
   -1.2285    1.3586   -4.4979
   -0.0234    1.9768   -4.8326
    1.1906    1.3696   -4.4900
    1.1915    0.1511   -3.8005
   -0.0302    3.1791   -5.4893
    0.9334    3.3824   -6.5262
    0.7545    4.7613   -7.1150
    1.5602    5.6522   -6.8498
   -0.2742    5.0118   -7.9201
   -0.1288   -1.7349    7.2423
    0.0720   -2.7634    7.8167
   -0.3993   -0.6121    7.9412
   -0.4348   -0.7023    9.3680
   -0.9921    0.7448    2.0645
    0.5522    1.3038    2.7430
   -0.9600    1.5709    3.6375
   -0.5497    0.3945    5.6356
    0.4057   -3.7788    5.5532
    0.4301   -3.7140    3.0781
   -0.0145   -0.7438    1.0341
   -0.0145   -3.6434   -0.9617
    0.8741   -0.9253   -0.9260
   -0.9030   -0.9254   -0.9259
   -0.9030   -2.3439   -2.9547
    0.8741   -2.3439   -2.9547
   -2.1647   -0.3250   -3.5542
   -2.1625    1.8246   -4.7751
    2.1207    1.8451   -4.7643
    2.1352   -0.3090   -3.5471
    0.7922    2.6344   -7.3034
    1.9355    3.2914   -6.1122
   -0.9351    4.2796   -8.1371
   -0.3938    5.9341   -8.3139
    0.5375   -1.0245    9.7347
   -0.6761    0.2725    9.7865
   -1.1928   -1.4234    9.6664
@<BUDE>CONF  38
   -0.4245    0.8878    2.9816
   -0.2485   -0.4413    3.6759
   -0.3135   -0.4967    5.0732
   -0.0810   -1.6922    5.7637
    0.2031   -2.8510    5.0390
    0.2272   -2.8142    3.6398
   -0.0145   -1.6178    2.9542
   -0.0145   -1.6184    1.5391
   -0.0145   -2.7699    0.8737
   -0.0145   -3.8524    1.4988
   -0.0145   -2.7689   -0.4564
   -0.0145   -1.4951   -1.1899
   -0.0145   -1.7735   -2.6922
   -0.0145   -0.4649   -3.4457
   -1.2238    0.1417   -3.8056
   -1.2285    1.3586   -4.4979
   -0.0234    1.9768   -4.8326
    1.1906    1.3696   -4.4900
    1.1915    0.1511   -3.8005
   -0.0302    3.1791   -5.4893
    0.9334    3.3824   -6.5262
    0.7545    4.7613   -7.1150
    1.5602    5.6522   -6.8498
   -0.2742    5.0118   -7.9201
   -0.1288   -1.7349    7.2423
    0.0720   -2.7634    7.8167
   -0.3993   -0.6121    7.9412
   -0.4348   -0.7023    9.3680
   -0.9921    0.7448    2.0645
    0.5522    1.3038    2.7430
   -0.9600    1.5709    3.6375
   -0.5497    0.3945    5.6356
    0.4057   -3.7788    5.5532
    0.4301   -3.7140    3.0781
   -0.0145   -0.7438    1.0341
   -0.0145   -3.6434   -0.9617
    0.8741   -0.9253   -0.9260
   -0.9030   -0.9254   -0.9259
   -0.9030   -2.3439   -2.9547
    0.8741   -2.3439   -2.9547
   -2.1647   -0.3250   -3.5542
   -2.1625    1.8246   -4.7751
    2.1207    1.8451   -4.7643
    2.1352   -0.3090   -3.5471
    0.7922    2.6344   -7.3034
    1.9355    3.2914   -6.1122
   -0.3938    5.9341   -8.3139
   -0.9351    4.2796   -8.1371
    0.5375   -1.0245    9.7347
   -0.6761    0.2725    9.7865
   -1.1928   -1.4234    9.6664
@<BUDE>CONF  39
   -1.6469    3.4855    2.6338
   -1.4709    2.1564    3.3281
   -1.5359    2.1010    4.7254
   -1.3034    0.9055    5.4159
   -1.0193   -0.2533    4.6912
   -0.9952   -0.2165    3.2920
   -1.2369    0.9799    2.6064
   -1.2369    0.9793    1.1913
   -1.2369   -0.1722    0.5259
   -1.2369   -1.2547    1.1510
   -1.2369   -0.1712   -0.8042
   -1.2369    1.1026   -1.5377
   -1.2369    0.8242   -3.0400
    0.0319    0.0970   -3.4163
    1.1707    0.8166   -3.7970
    2.3514    0.1467   -4.1396
    2.4003   -1.2471   -4.1015
    1.2616   -1.9751   -3.7364
    0.0817   -1.3020   -3.3976
    3.5633   -1.9001   -4.4143
    3.4723   -3.0969   -5.1917
    2.8437   -2.7815   -6.5280
    1.6819   -3.1160   -6.7549
    3.5465   -2.1422   -7.4587
   -1.3512    0.8628    6.8945
   -1.5906    1.8567    7.5132
   -1.1244   -0.2991    7.5434
   -1.1812   -0.2916    8.9723
   -2.2145    3.3425    1.7167
   -0.6702    3.9015    2.3952
   -2.1824    4.1686    3.2897
   -1.7721    2.9922    5.2878
   -0.8167   -1.1811    5.2054
   -0.7923   -1.1163    2.7303
   -1.2369    1.8539    0.6863
   -1.2369   -1.0457   -1.3095
   -0.3483    1.6724   -1.2738
   -2.1254    1.6723   -1.2737
   -1.2906    1.7656   -3.5827
   -2.0974    0.2087   -3.2942
    1.1483    1.8958   -3.8321
    3.2287    0.7036   -4.4337
    1.3004   -3.0543   -3.7226
   -0.7910   -1.8760   -3.1230
    2.8595   -3.8252   -4.6648
    4.4690   -3.5048   -5.3464
    4.5003   -1.8680   -7.2712
    3.1261   -1.9312   -8.3524
   -2.1758    0.0108    9.2935
   -0.9656   -1.2894    9.3485
   -0.4454    0.4097    9.3602
@<BUDE>CONF  40
   -1.6469    3.4855    2.6338
   -1.4709    2.1564    3.3281
   -1.5359    2.1010    4.7254
   -1.3034    0.9055    5.4159
   -1.0193   -0.2533    4.6912
   -0.9952   -0.2165    3.2920
   -1.2369    0.9799    2.6064
   -1.2369    0.9793    1.1913
   -1.2369   -0.1722    0.5259
   -1.2369   -1.2547    1.1510
   -1.2369   -0.1712   -0.8042
   -1.2369    1.1026   -1.5377
   -1.2369    0.8242   -3.0400
    0.0319    0.0970   -3.4163
    1.1707    0.8166   -3.7970
    2.3514    0.1467   -4.1396
    2.4003   -1.2471   -4.1015
    1.2616   -1.9751   -3.7364
    0.0817   -1.3020   -3.3976
    3.5633   -1.9001   -4.4143
    3.4723   -3.0969   -5.1917
    2.8437   -2.7815   -6.5280
    1.6819   -3.1160   -6.7549
    3.5465   -2.1422   -7.4587
   -1.3512    0.8628    6.8945
   -1.5906    1.8567    7.5132
   -1.1244   -0.2991    7.5434
   -1.1812   -0.2916    8.9723
   -2.2145    3.3425    1.7167
   -0.6702    3.9015    2.3952
   -2.1824    4.1686    3.2897
   -1.7721    2.9922    5.2878
   -0.8167   -1.1811    5.2054
   -0.7923   -1.1163    2.7303
   -1.2369    1.8539    0.6863
   -1.2369   -1.0457   -1.3095
   -0.3483    1.6724   -1.2738
   -2.1254    1.6723   -1.2737
   -1.2906    1.7656   -3.5827
   -2.0974    0.2087   -3.2942
    1.1483    1.8958   -3.8321
    3.2287    0.7036   -4.4337
    1.3004   -3.0543   -3.7226
   -0.7910   -1.8760   -3.1230
    2.8595   -3.8252   -4.6648
    4.4690   -3.5048   -5.3464
    3.1261   -1.9312   -8.3524
    4.5003   -1.8680   -7.2712
   -2.1758    0.0108    9.2935
   -0.9656   -1.2894    9.3485
   -0.4454    0.4097    9.3602
@<BUDE>CONF  41
   -1.2304    5.5576    1.9009
   -1.0544    4.2285    2.5952
   -1.1194    4.1731    3.9925
   -0.8869    2.9776    4.6830
   -0.6028    1.8188    3.9583
   -0.5787    1.8556    2.5591
   -0.8204    3.0520    1.8735
   -0.8204    3.0514    0.4584
   -0.8204    1.8999   -0.2070
   -0.8204    0.8174    0.4181
   -0.8204    1.9009   -1.5371
   -0.8204    0.6281   -2.2725
    0.4367   -0.1643   -1.9173
    0.4367   -1.4717   -2.6727
   -0.1462   -2.6125   -2.1081
   -0.1549   -3.8250   -2.8081
    0.4179   -3.9029   -4.0779
    1.0164   -2.7709   -4.6437
    1.0260   -1.5608   -3.9395
    0.3877   -5.0842   -4.7711
    1.5540   -5.4590   -5.5088
    2.7217   -5.6048   -4.5626
    3.6010   -4.7451   -4.5344
    2.7988   -6.6627   -3.7602
   -0.9347    2.9349    6.1616
   -1.1741    3.9288    6.7803
   -0.7079    1.7730    6.8105
   -0.7647    1.7805    8.2394
   -1.7980    5.4146    0.9838
   -0.2537    5.9736    1.6623
   -1.7659    6.2407    2.5568
   -1.3556    5.0643    4.5549
   -0.4002    0.8910    4.4725
   -0.3758    0.9558    1.9974
   -0.8204    3.9260   -0.0466
   -0.8204    2.7761   -2.0411
   -0.8338    0.8279   -3.3420
   -1.7022    0.0523   -1.9995
    0.4494   -0.3628   -0.8476
    1.3177    0.4129   -2.1902
   -0.5929   -2.5681   -1.1259
   -0.6045   -4.7040   -2.3705
    1.4712   -2.8403   -5.6207
    1.4958   -0.6966   -4.3854
    1.7779   -4.6914   -6.2466
    1.3745   -6.4063   -6.0130
    2.0762   -7.3680   -3.7842
    3.5798   -6.7602   -3.1273
   -1.7593    2.0829    8.5606
   -0.5491    0.7827    8.6156
   -0.0289    2.4818    8.6273
@<BUDE>CONF  42
   -1.2304    5.5576    1.9009
   -1.0544    4.2285    2.5952
   -1.1194    4.1731    3.9925
   -0.8869    2.9776    4.6830
   -0.6028    1.8188    3.9583
   -0.5787    1.8556    2.5591
   -0.8204    3.0520    1.8735
   -0.8204    3.0514    0.4584
   -0.8204    1.8999   -0.2070
   -0.8204    0.8174    0.4181
   -0.8204    1.9009   -1.5371
   -0.8204    0.6281   -2.2725
    0.4367   -0.1643   -1.9173
    0.4367   -1.4717   -2.6727
   -0.1462   -2.6125   -2.1081
   -0.1549   -3.8250   -2.8081
    0.4179   -3.9029   -4.0779
    1.0164   -2.7709   -4.6437
    1.0260   -1.5608   -3.9395
    0.3877   -5.0842   -4.7711
    1.5540   -5.4590   -5.5088
    2.7217   -5.6048   -4.5626
    3.6010   -4.7451   -4.5344
    2.7988   -6.6627   -3.7602
   -0.9347    2.9349    6.1616
   -1.1741    3.9288    6.7803
   -0.7079    1.7730    6.8105
   -0.7647    1.7805    8.2394
   -1.7980    5.4146    0.9838
   -0.2537    5.9736    1.6623
   -1.7659    6.2407    2.5568
   -1.3556    5.0643    4.5549
   -0.4002    0.8910    4.4725
   -0.3758    0.9558    1.9974
   -0.8204    3.9260   -0.0466
   -0.8204    2.7761   -2.0411
   -0.8338    0.8279   -3.3420
   -1.7022    0.0523   -1.9995
    0.4494   -0.3628   -0.8476
    1.3177    0.4129   -2.1902
   -0.5929   -2.5681   -1.1259
   -0.6045   -4.7040   -2.3705
    1.4712   -2.8403   -5.6207
    1.4958   -0.6966   -4.3854
    1.7779   -4.6914   -6.2466
    1.3745   -6.4063   -6.0130
    3.5798   -6.7602   -3.1273
    2.0762   -7.3680   -3.7842
   -1.7593    2.0829    8.5606
   -0.5491    0.7827    8.6156
   -0.0289    2.4818    8.6273
@<BUDE>CONF  43
    1.1821    3.4228    2.5481
    1.3581    2.0937    3.2424
    1.2931    2.0383    4.6397
    1.5256    0.8428    5.3302
    1.8097   -0.3160    4.6055
    1.8338   -0.2792    3.2063
    1.5921    0.9172    2.5207
    1.5921    0.9166    1.1056
    1.5921   -0.2349    0.4402
    1.5921   -1.3174    1.0653
    1.5921   -0.2339   -0.8899
    1.5921    1.0399   -1.6234
    1.5921    0.7615   -3.1257
    0.3233    0.0343   -3.5020
    0.2825   -1.3650   -3.4900
   -0.8939   -2.0432   -3.8311
   -2.0370   -1.3255   -4.1843
   -2.0006    0.0737   -4.2135
   -0.8215    0.7485   -3.8749
   -3.1938   -1.9902   -4.4949
   -3.9778   -1.4987   -5.5853
   -5.2002   -2.3683   -5.7574
   -6.3034   -1.9548   -5.4037
   -5.0833   -3.5808   -6.2913
    1.4778    0.8001    6.8088
    1.2384    1.7940    7.4275
    1.7046   -0.3618    7.4577
    1.6478   -0.3543    8.8866
    0.6145    3.2798    1.6310
    2.1588    3.8388    2.3095
    0.6466    4.1059    3.2040
    1.0569    2.9295    5.2021
    2.0123   -1.2438    5.1197
    2.0367   -1.1790    2.6446
    1.5921    1.7912    0.6006
    1.5921   -1.1084   -1.3952
    2.4807    1.6097   -1.3595
    0.7036    1.6096   -1.3594
    2.4525    0.1461   -3.3799
    1.6457    1.7030   -3.6684
    1.1593   -1.9345   -3.2196
   -0.9232   -3.1228   -3.8219
   -2.8839    0.6242   -4.5017
   -0.8057    1.8279   -3.9068
   -3.3845   -1.5214   -6.4969
   -4.2858   -0.4760   -5.3776
   -5.9009   -4.1624   -6.4064
   -4.1771   -3.9193   -6.5813
    0.6532   -0.0519    9.2078
    1.8634   -1.3521    9.2628
    2.3836    0.3470    9.2745
@<BUDE>CONF  44
    1.1821    3.4228    2.5481
    1.3581    2.0937    3.2424
    1.2931    2.0383    4.6397
    1.5256    0.8428    5.3302
    1.8097   -0.3160    4.6055
    1.8338   -0.2792    3.2063
    1.5921    0.9172    2.5207
    1.5921    0.9166    1.1056
    1.5921   -0.2349    0.4402
    1.5921   -1.3174    1.0653
    1.5921   -0.2339   -0.8899
    1.5921    1.0399   -1.6234
    1.5921    0.7615   -3.1257
    0.3233    0.0343   -3.5020
    0.2825   -1.3650   -3.4900
   -0.8939   -2.0432   -3.8311
   -2.0370   -1.3255   -4.1843
   -2.0006    0.0737   -4.2135
   -0.8215    0.7485   -3.8749
   -3.1938   -1.9902   -4.4949
   -3.9778   -1.4987   -5.5853
   -5.2002   -2.3683   -5.7574
   -6.3034   -1.9548   -5.4037
   -5.0833   -3.5808   -6.2913
    1.4778    0.8001    6.8088
    1.2384    1.7940    7.4275
    1.7046   -0.3618    7.4577
    1.6478   -0.3543    8.8866
    0.6145    3.2798    1.6310
    2.1588    3.8388    2.3095
    0.6466    4.1059    3.2040
    1.0569    2.9295    5.2021
    2.0123   -1.2438    5.1197
    2.0367   -1.1790    2.6446
    1.5921    1.7912    0.6006
    1.5921   -1.1084   -1.3952
    2.4807    1.6097   -1.3595
    0.7036    1.6096   -1.3594
    2.4525    0.1461   -3.3799
    1.6457    1.7030   -3.6684
    1.1593   -1.9345   -3.2196
   -0.9232   -3.1228   -3.8219
   -2.8839    0.6242   -4.5017
   -0.8057    1.8279   -3.9068
   -3.3845   -1.5214   -6.4969
   -4.2858   -0.4760   -5.3776
   -4.1771   -3.9193   -6.5813
   -5.9010   -4.1624   -6.4064
    0.6532   -0.0519    9.2078
    1.8634   -1.3521    9.2628
    2.3836    0.3470    9.2745
@<BUDE>CONF  45
   -1.6087    3.3103    2.6300
   -1.4327    1.9812    3.3243
   -1.4977    1.9258    4.7216
   -1.2652    0.7303    5.4121
   -0.9811   -0.4285    4.6874
   -0.9570   -0.3917    3.2882
   -1.1987    0.8047    2.6026
   -1.1987    0.8041    1.1875
   -1.1987   -0.3474    0.5221
   -1.1987   -1.4299    1.1472
   -1.1987   -0.3464   -0.8080
   -1.1987    0.9274   -1.5415
   -1.1987    0.6490   -3.0438
    0.0701   -0.0782   -3.4201
    1.2089    0.6414   -3.8008
    2.3896   -0.0285   -4.1434
    2.4385   -1.4223   -4.1053
    1.2998   -2.1503   -3.7402
    0.1199   -1.4772   -3.4014
    3.6015   -2.0753   -4.4181
    3.5105   -3.2721   -5.1955
    2.8819   -2.9567   -6.5318
    1.7201   -3.2912   -6.7587
    3.5847   -2.3174   -7.4625
   -1.3130    0.6876    6.8907
   -1.1122   -0.3409    7.4651
   -1.5835    1.8104    7.5896
   -1.6190    1.7202    9.0164
   -2.1763    3.1673    1.7129
   -0.6320    3.7263    2.3914
   -2.1442    3.9934    3.2859
   -1.7339    2.8170    5.2840
   -0.7785   -1.3563    5.2016
   -0.7541   -1.2915    2.7265
   -1.1987    1.6787    0.6825
   -1.1987   -1.2209   -1.3133
   -0.3101    1.4972   -1.2776
   -2.0872    1.4971   -1.2775
   -1.2524    1.5904   -3.5865
   -2.0592    0.0335   -3.2980
    1.1865    1.7206   -3.8359
    3.2669    0.5284   -4.4375
    1.3386   -3.2295   -3.7264
   -0.7528   -2.0512   -3.1268
    2.8977   -4.0004   -4.6686
    4.5072   -3.6800   -5.3502
    3.1643   -2.1064   -8.3562
    4.5385   -2.0432   -7.2750
   -0.6467    1.3980    9.3831
   -1.8603    2.6950    9.4349
   -2.3770    0.9991    9.3148
@<BUDE>CONF  46
   -1.6087    3.3103    2.6300
   -1.4327    1.9812    3.3243
   -1.4977    1.9258    4.7216
   -1.2652    0.7303    5.4121
   -0.9811   -0.4285    4.6874
   -0.9570   -0.3917    3.2882
   -1.1987    0.8047    2.6026
   -1.1987    0.8041    1.1875
   -1.1987   -0.3474    0.5221
   -1.1987   -1.4299    1.1472
   -1.1987   -0.3464   -0.8080
   -1.1987    0.9274   -1.5415
   -1.1987    0.6490   -3.0438
    0.0701   -0.0782   -3.4201
    1.2089    0.6414   -3.8008
    2.3896   -0.0285   -4.1434
    2.4385   -1.4223   -4.1053
    1.2998   -2.1503   -3.7402
    0.1199   -1.4772   -3.4014
    3.6015   -2.0753   -4.4181
    3.5105   -3.2721   -5.1955
    2.8819   -2.9567   -6.5318
    1.7201   -3.2912   -6.7587
    3.5847   -2.3174   -7.4625
   -1.3130    0.6876    6.8907
   -1.1122   -0.3409    7.4651
   -1.5835    1.8104    7.5896
   -1.6190    1.7202    9.0164
   -2.1763    3.1673    1.7129
   -0.6320    3.7263    2.3914
   -2.1442    3.9934    3.2859
   -1.7339    2.8170    5.2840
   -0.7785   -1.3563    5.2016
   -0.7541   -1.2915    2.7265
   -1.1987    1.6787    0.6825
   -1.1987   -1.2209   -1.3133
   -0.3101    1.4972   -1.2776
   -2.0872    1.4971   -1.2775
   -1.2524    1.5904   -3.5865
   -2.0592    0.0335   -3.2980
    1.1865    1.7206   -3.8359
    3.2669    0.5284   -4.4375
    1.3386   -3.2295   -3.7264
   -0.7528   -2.0512   -3.1268
    2.8977   -4.0004   -4.6686
    4.5072   -3.6800   -5.3502
    4.5385   -2.0432   -7.2750
    3.1643   -2.1064   -8.3562
   -0.6467    1.3980    9.3831
   -1.8603    2.6950    9.4349
   -2.3770    0.9991    9.3148
@<BUDE>CONF  47
   -1.1923    5.3824    1.8971
   -1.0163    4.0533    2.5914
   -1.0813    3.9979    3.9887
   -0.8488    2.8024    4.6792
   -0.5647    1.6436    3.9545
   -0.5406    1.6804    2.5553
   -0.7823    2.8768    1.8697
   -0.7823    2.8762    0.4546
   -0.7823    1.7247   -0.2108
   -0.7823    0.6422    0.4143
   -0.7823    1.7257   -1.5409
   -0.7823    0.4529   -2.2763
    0.4748   -0.3395   -1.9211
    0.4748   -1.6469   -2.6765
   -0.1081   -2.7877   -2.1119
   -0.1168   -4.0002   -2.8119
    0.4560   -4.0781   -4.0817
    1.0545   -2.9461   -4.6475
    1.0641   -1.7360   -3.9433
    0.4258   -5.2594   -4.7749
    1.5921   -5.6342   -5.5126
    2.7598   -5.7800   -4.5664
    3.6391   -4.9203   -4.5382
    2.8369   -6.8379   -3.7640
   -0.8966    2.7597    6.1578
   -0.6958    1.7312    6.7322
   -1.1671    3.8825    6.8567
   -1.2026    3.7923    8.2835
   -1.7599    5.2394    0.9800
   -0.2156    5.7984    1.6585
   -1.7278    6.0655    2.5530
   -1.3175    4.8891    4.5511
   -0.3621    0.7158    4.4687
   -0.3377    0.7806    1.9936
   -0.7823    3.7508   -0.0504
   -0.7823    2.6009   -2.0449
   -0.7957    0.6527   -3.3458
   -1.6641   -0.1229   -2.0033
    0.4875   -0.5380   -0.8514
    1.3558    0.2377   -2.1940
   -0.5548   -2.7433   -1.1297
   -0.5664   -4.8792   -2.3743
    1.5093   -3.0155   -5.6245
    1.5339   -0.8718   -4.3892
    1.8160   -4.8666   -6.2504
    1.4126   -6.5815   -6.0168
    2.1143   -7.5432   -3.7880
    3.6179   -6.9354   -3.1311
   -0.2303    3.4701    8.6502
   -1.4439    4.7671    8.7020
   -1.9606    3.0712    8.5819
@<BUDE>CONF  48
   -1.1923    5.3824    1.8971
   -1.0163    4.0533    2.5914
   -1.0813    3.9979    3.9887
   -0.8488    2.8024    4.6792
   -0.5647    1.6436    3.9545
   -0.5406    1.6804    2.5553
   -0.7823    2.8768    1.8697
   -0.7823    2.8762    0.4546
   -0.7823    1.7247   -0.2108
   -0.7823    0.6422    0.4143
   -0.7823    1.7257   -1.5409
   -0.7823    0.4529   -2.2763
    0.4748   -0.3395   -1.9211
    0.4748   -1.6469   -2.6765
   -0.1081   -2.7877   -2.1119
   -0.1168   -4.0002   -2.8119
    0.4560   -4.0781   -4.0817
    1.0545   -2.9461   -4.6475
    1.0641   -1.7360   -3.9433
    0.4258   -5.2594   -4.7749
    1.5921   -5.6342   -5.5126
    2.7598   -5.7800   -4.5664
    3.6391   -4.9203   -4.5382
    2.8369   -6.8379   -3.7640
   -0.8966    2.7597    6.1578
   -0.6958    1.7312    6.7322
   -1.1671    3.8825    6.8567
   -1.2026    3.7923    8.2835
   -1.7599    5.2394    0.9800
   -0.2156    5.7984    1.6585
   -1.7278    6.0655    2.5530
   -1.3175    4.8891    4.5511
   -0.3621    0.7158    4.4687
   -0.3377    0.7806    1.9936
   -0.7823    3.7508   -0.0504
   -0.7823    2.6009   -2.0449
   -0.7957    0.6527   -3.3458
   -1.6641   -0.1229   -2.0033
    0.4875   -0.5380   -0.8514
    1.3558    0.2377   -2.1940
   -0.5548   -2.7433   -1.1297
   -0.5664   -4.8792   -2.3743
    1.5093   -3.0155   -5.6245
    1.5339   -0.8718   -4.3892
    1.8160   -4.8666   -6.2504
    1.4126   -6.5815   -6.0168
    3.6179   -6.9354   -3.1311
    2.1143   -7.5432   -3.7880
   -0.2303    3.4701    8.6502
   -1.4439    4.7671    8.7020
   -1.9606    3.0712    8.5819
@<BUDE>CONF  49
    1.2202    3.2476    2.5443
    1.3962    1.9185    3.2386
    1.3312    1.8631    4.6359
    1.5637    0.6676    5.3264
    1.8478   -0.4912    4.6017
    1.8719   -0.4544    3.2025
    1.6302    0.7420    2.5169
    1.6302    0.7414    1.1018
    1.6302   -0.4101    0.4364
    1.6302   -1.4926    1.0615
    1.6302   -0.4091   -0.8937
    1.6302    0.8647   -1.6272
    1.6302    0.5863   -3.1295
    0.3614   -0.1409   -3.5058
    0.3206   -1.5402   -3.4938
   -0.8558   -2.2184   -3.8349
   -1.9989   -1.5007   -4.1881
   -1.9625   -0.1015   -4.2173
   -0.7834    0.5733   -3.8787
   -3.1557   -2.1654   -4.4987
   -3.9397   -1.6739   -5.5891
   -5.1621   -2.5435   -5.7612
   -6.2653   -2.1300   -5.4075
   -5.0452   -3.7560   -6.2951
    1.5159    0.6249    6.8050
    1.7167   -0.4036    7.3794
    1.2454    1.7477    7.5039
    1.2099    1.6575    8.9307
    0.6526    3.1046    1.6272
    2.1969    3.6636    2.3057
    0.6847    3.9307    3.2002
    1.0950    2.7543    5.1983
    2.0504   -1.4190    5.1159
    2.0748   -1.3542    2.6408
    1.6302    1.6160    0.5968
    1.6302   -1.2836   -1.3990
    2.5188    1.4345   -1.3633
    0.7417    1.4344   -1.3632
    2.4906   -0.0291   -3.3837
    1.6838    1.5278   -3.6722
    1.1974   -2.1097   -3.2234
   -0.8851   -3.2980   -3.8257
   -2.8458    0.4490   -4.5055
   -0.7676    1.6527   -3.9106
   -3.3464   -1.6966   -6.5007
   -4.2477   -0.6512   -5.3814
   -4.1390   -4.0945   -6.5851
   -5.8629   -4.3376   -6.4102
    2.1822    1.3353    9.2974
    0.9686    2.6323    9.3492
    0.4519    0.9364    9.2291
@<BUDE>CONF  50
    1.2202    3.2476    2.5443
    1.3962    1.9185    3.2386
    1.3312    1.8631    4.6359
    1.5637    0.6676    5.3264
    1.8478   -0.4912    4.6017
    1.8719   -0.4544    3.2025
    1.6302    0.7420    2.5169
    1.6302    0.7414    1.1018
    1.6302   -0.4101    0.4364
    1.6302   -1.4926    1.0615
    1.6302   -0.4091   -0.8937
    1.6302    0.8647   -1.6272
    1.6302    0.5863   -3.1295
    0.3614   -0.1409   -3.5058
    0.3206   -1.5402   -3.4938
   -0.8558   -2.2184   -3.8349
   -1.9989   -1.5007   -4.1881
   -1.9625   -0.1015   -4.2173
   -0.7834    0.5733   -3.8787
   -3.1557   -2.1654   -4.4987
   -3.9397   -1.6739   -5.5891
   -5.1621   -2.5435   -5.7612
   -6.2653   -2.1300   -5.4075
   -5.0452   -3.7560   -6.2951
    1.5159    0.6249    6.8050
    1.7167   -0.4036    7.3794
    1.2454    1.7477    7.5039
    1.2099    1.6575    8.9307
    0.6526    3.1046    1.6272
    2.1969    3.6636    2.3057
    0.6847    3.9307    3.2002
    1.0950    2.7543    5.1983
    2.0504   -1.4190    5.1159
    2.0748   -1.3542    2.6408
    1.6302    1.6160    0.5968
    1.6302   -1.2836   -1.3990
    2.5188    1.4345   -1.3633
    0.7417    1.4344   -1.3632
    2.4906   -0.0291   -3.3837
    1.6838    1.5278   -3.6722
    1.1974   -2.1097   -3.2234
   -0.8851   -3.2980   -3.8257
   -2.8458    0.4490   -4.5055
   -0.7676    1.6527   -3.9106
   -3.3464   -1.6966   -6.5007
   -4.2477   -0.6512   -5.3814
   -5.8628   -4.3376   -6.4102
   -4.1390   -4.0945   -6.5851
    2.1822    1.3353    9.2974
    0.9686    2.6323    9.3492
    0.4519    0.9364    9.2291
