@<TRIPOS>MOLECULE
ZINC61419927
   47    49     0     0     0
SMALL
USER_CHARGES

@<TRIPOS>ATOM
      1 C1         -2.1193    2.8614   -0.6250 C.3       1 <0>        -0.1238
      2 C2         -1.9892    1.3600   -0.6165 C.2       1 <0>         0.1810
      3 C3         -3.0100    0.4823   -0.4955 C.2       1 <0>        -0.7869
      4 C4         -2.4544   -0.8055   -0.5352 C.2       1 <0>        -0.0116
      5 C5         -1.1051   -0.6468   -0.6804 C.2       1 <0>        -0.0716
      6 O1         -0.8439    0.6760   -0.7335 O.3       1 <0>        -0.1351
      7 C6         -0.1162   -1.7237   -0.7685 C.2       1 <0>         0.5609
      8 O2         -0.4747   -2.8846   -0.7126 O.2       1 <0>        -0.4736
      9 O3          1.1922   -1.4280   -0.9115 O.3       1 <0>        -0.3174
     10 C7          2.1010   -2.5279   -0.9907 C.3       1 <0>         0.0499
     11 C8          3.5067   -2.0077   -1.1474 C.2       1 <0>         0.5192
     12 O4          3.7102   -0.8127   -1.1874 O.2       1 <0>        -0.4838
     13 N1          4.5377   -2.8704   -1.2432 N.am      1 <0>        -0.6609
     14 C9          5.8527   -2.3895   -1.2727 C.ar      1 <0>         0.1328
     15 C10         6.1399   -1.1199   -0.7909 C.ar      1 <0>        -0.1070
     16 C11         7.4389   -0.6479   -0.8214 C.ar      1 <0>        -0.0227
     17 C12         8.4530   -1.4395   -1.3316 C.ar      1 <0>        -0.0992
     18 C13         8.1708   -2.7047   -1.8124 C.ar      1 <0>        -0.1155
     19 C14         6.8743   -3.1851   -1.7795 C.ar      1 <0>         0.0725
     20 F1          6.5999   -4.4236   -2.2442 F         1 <0>        -0.1311
     21 Cl1         7.7985    0.9402   -0.2195 Cl        1 <0>        -0.0505
     22 S1         -4.7174    0.8805   -0.3201 S.o2      1 <0>         2.7353
     23 O5         -5.0092    1.8607   -1.3066 O.2       1 <0>        -0.9438
     24 O6         -5.4165   -0.3542   -0.2427 O.2       1 <0>        -0.9431
     25 N2         -4.8991    1.6202    1.1504 N.pl3     1 <0>        -1.0117
     26 C15        -5.0875    0.9344    2.4371 C.3       1 <0>         0.1158
     27 C16        -5.2358    2.0241    3.5197 C.3       1 <0>        -0.1296
     28 C17        -5.6885    3.2644    2.7047 C.3       1 <0>        -0.1292
     29 C18        -4.8923    3.0754    1.3868 C.3       1 <0>         0.1079
     30 H1         -1.1285    3.3116   -0.6861 H         1 <0>         0.1035
     31 H2         -2.7123    3.1699   -1.4860 H         1 <0>         0.1234
     32 H3         -2.6112    3.1886    0.2910 H         1 <0>         0.1077
     33 H4         -2.9896   -1.7409   -0.4642 H         1 <0>         0.1837
     34 H5          2.0329   -3.1218   -0.0793 H         1 <0>         0.1136
     35 H6          1.8457   -3.1491   -1.8491 H         1 <0>         0.1125
     36 H7          4.3690   -3.8244   -1.2917 H         1 <0>         0.4215
     37 H8          5.3492   -0.5012   -0.3930 H         1 <0>         0.1733
     38 H9          9.4668   -1.0681   -1.3544 H         1 <0>         0.1477
     39 H10         8.9643   -3.3202   -2.2099 H         1 <0>         0.1529
     40 H11        -5.9883    0.3216    2.4021 H         1 <0>         0.0779
     41 H12        -4.2206    0.3107    2.6552 H         1 <0>         0.0674
     42 H13        -5.9961    1.7430    4.2483 H         1 <0>         0.0847
     43 H14        -4.2809    2.2127    4.0104 H         1 <0>         0.0771
     44 H15        -6.7629    3.2414    2.5227 H         1 <0>         0.0805
     45 H16        -5.3983    4.1881    3.2054 H         1 <0>         0.0863
     46 H17        -3.8703    3.4360    1.5033 H         1 <0>         0.0693
     47 H18        -5.3878    3.5953    0.5669 H         1 <0>         0.0896
@<TRIPOS>BOND
     1    1    2 1
     2    1   30 1
     3    1   31 1
     4    1   32 1
     5    2    6 1
     6    2    3 2
     7    3    4 1
     8    3   22 1
     9    4    5 2
    10    4   33 1
    11    5    6 1
    12    5    7 1
    13    7    8 2
    14    7    9 1
    15    9   10 1
    16   10   11 1
    17   10   34 1
    18   10   35 1
    19   11   12 2
    20   11   13 am
    21   13   14 1
    22   13   36 1
    23   14   19 ar
    24   14   15 ar
    25   15   16 ar
    26   15   37 1
    27   16   17 ar
    28   16   21 1
    29   17   18 ar
    30   17   38 1
    31   18   19 ar
    32   18   39 1
    33   19   20 1
    34   22   23 2
    35   22   24 2
    36   22   25 1
    37   25   29 1
    38   25   26 1
    39   26   27 1
    40   26   40 1
    41   26   41 1
    42   27   28 1
    43   27   42 1
    44   27   43 1
    45   28   29 1
    46   28   44 1
    47   28   45 1
    48   29   46 1
    49   29   47 1
@<BUDE>CONF  1
   -3.1608    0.1336   -3.9659
   -2.0468    0.4053   -2.9835
   -2.1386    0.5920   -1.6598
   -0.7307    0.8035   -1.2555
   -0.0441    0.7097   -2.4024
   -0.7610    0.4712   -3.5152
    1.4270    0.8519   -2.4808
    1.9806    0.7574   -3.5356
    2.1425    1.0882   -1.3608
    3.5611    1.2181   -1.4860
    4.1639    1.4773   -0.1260
    4.9243    2.4302    0.0378
    3.8723    0.6751    0.8940
    4.4372    0.9179    2.1684
    5.2893    2.0044    2.3994
    5.8699    2.1895    3.6599
    5.5791    1.3080    4.7047
    4.6939    0.2447    4.4910
    4.1171    0.0614    3.2285
    3.2422   -0.9465    3.0264
    6.9518    3.5249    3.9318
   -3.6167    0.5915   -0.5641
   -4.6946    1.2656   -1.2189
   -3.3057    1.2662    0.6577
   -4.0865   -1.0582   -0.2175
   -3.4738   -1.7931    0.8550
   -4.4273   -2.9987    0.9505
   -4.8999   -3.1954   -0.5019
   -5.1205   -1.7539   -0.9970
   -4.1110    0.1055   -3.4369
   -2.9880   -0.8234   -4.4536
   -3.1847    0.9236   -4.7137
   -0.3592    0.9884   -0.2584
    3.7913    2.0489   -2.1497
    3.9739    0.2994   -1.8973
    3.2479   -0.1071    0.7583
    5.5005    2.7170    1.6158
    6.0334    1.4513    5.6739
    4.4517   -0.4359    5.2939
   -2.4734   -2.0921    0.5491
   -3.4190   -1.2203    1.7784
   -5.2848   -2.7326    1.5652
   -3.9539   -3.8819    1.3745
   -4.0970   -3.6543   -1.0750
   -5.7916   -3.8136   -0.5830
   -6.0948   -1.3668   -0.7063
   -4.9851   -1.6462   -2.0711
@<BUDE>CONF  2
   -0.2372    5.9098   -0.0248
    0.0020    4.4322   -0.2234
   -0.6982    3.4060    0.2789
    0.0056    2.2244   -0.2673
    1.0018    2.7457   -0.9963
    1.0853    4.0878   -1.0285
    1.9774    1.9210   -1.7437
    2.8440    2.4476   -2.3760
    1.8877    0.5745   -1.7107
    2.8527   -0.1803   -2.4484
    2.5743   -1.6546   -2.2780
    2.4761   -2.3798   -3.2667
    2.4354   -2.1682   -1.0590
    2.1745   -3.5497   -0.8994
    2.0776   -4.4109   -1.9988
    1.7710   -5.7639   -1.8098
    1.5892   -6.2704   -0.5200
    1.7275   -5.4229    0.5856
    2.0318   -4.0700    0.3924
    2.1927   -3.2560    1.4572
    1.6224   -6.8224   -3.1828
   -2.1763    3.4055    1.3746
   -3.2542    4.0796    0.7198
   -1.8653    4.0802    2.5964
   -2.6461    1.7558    1.7212
   -2.2098    1.0982    2.9224
   -2.5890   -0.3590    2.5990
   -3.8426   -0.2136    1.7164
   -3.4940    0.9786    0.8059
   -1.1035    6.0531    0.6175
   -0.4181    6.3800   -0.9891
    0.6379    6.3589    0.4401
   -0.2420    1.1855   -0.1062
    3.8500    0.0464   -2.0775
    2.7887    0.0821   -3.5023
    2.5162   -1.5718   -0.2480
    2.2480   -4.0478   -3.0016
    1.3474   -7.3134   -0.3790
    1.6017   -5.8052    1.5878
   -1.1335    1.2237    3.0203
   -2.7058    1.4789    3.8128
   -2.8648   -0.8723    3.5178
   -1.7837   -0.9107    2.1185
   -3.9528   -1.1100    1.1097
   -4.7548   -0.0585    2.2887
   -4.3711    1.5718    0.5559
   -2.9753    0.6834   -0.1038
@<BUDE>CONF  3
    2.8634   -0.0405    4.1529
    2.2514    0.2646    2.8067
    0.9612    0.4776    2.5137
    0.9884    0.7279    1.0554
    2.2837    0.6192    0.7296
    3.1344    0.3340    1.7316
    2.7910    0.7996   -0.6491
    3.9593    0.6893   -0.8745
    1.9337    1.0886   -1.6509
    2.4702    1.2540   -2.9661
    1.3510    1.5699   -3.9293
    1.4356    2.5479   -4.6705
    0.2743    0.7904   -3.9756
   -0.7745    1.0864   -4.8781
   -0.7053    2.1775   -5.7525
   -1.7806    2.4715   -6.5996
   -2.9183    1.6599   -6.5997
   -2.9752    0.5424   -5.7583
   -1.8990    0.2531   -4.9109
   -1.9391   -0.8389   -4.1182
   -1.7001    3.8468   -7.6625
   -0.5169    0.4771    3.6094
   -1.5948    1.1512    2.9546
   -0.2059    1.1518    4.8312
   -0.9867   -1.1726    3.9560
   -0.3740   -1.9075    5.0285
   -1.3275   -3.1131    5.1240
   -1.8001   -3.3098    3.6716
   -2.0207   -1.8683    3.1765
    2.0809   -0.0690    4.9082
    3.5849    0.7334    4.4062
    3.3645   -1.0054    4.1124
    0.1467    0.9482    0.4156
    2.9654    0.3352   -3.2732
    3.1889    2.0708   -2.9638
    0.2059   -0.0124   -3.3665
    0.1780    2.7975   -5.7932
   -3.7478    1.8934   -7.2507
   -3.8438   -0.0994   -5.7584
    0.6264   -2.2065    4.7226
   -0.3192   -1.3347    5.9519
   -2.1850   -2.8470    5.7387
   -0.8541   -3.9963    5.5480
   -0.9972   -3.7687    3.0985
   -2.6918   -3.9280    3.5905
   -2.9950   -1.4812    3.4672
   -1.8853   -1.7606    2.1024
@<BUDE>CONF  4
   -1.8608    2.9715    1.1048
   -1.6216    1.4939    0.9062
   -2.3218    0.4677    1.4085
   -1.6180   -0.7139    0.8623
   -0.6218   -0.1926    0.1333
   -0.5383    1.1495    0.1011
    0.3538   -1.0173   -0.6141
    0.2744   -2.2092   -0.5849
    1.3327   -0.4224   -1.3284
    2.2519   -1.2603   -2.0341
    3.2580   -0.4011   -2.7619
    3.4622   -0.5768   -3.9621
    3.9226    0.5452   -2.1048
    4.8653    1.3503   -2.7869
    5.1095    1.1953   -4.1566
    6.0833    1.9753   -4.7920
    6.7972    2.9352   -4.0694
    6.5268    3.1244   -2.7089
    5.5541    2.3408   -2.0765
    5.2716    2.5392   -0.7715
    6.4028    1.7564   -6.4883
   -3.7999    0.4672    2.5042
   -4.8778    1.1413    1.8494
   -3.4889    1.1419    3.7260
   -4.2697   -1.1825    2.8508
   -3.6570   -1.9174    3.9233
   -4.6105   -3.1230    4.0188
   -5.0831   -3.3197    2.5664
   -5.3037   -1.8782    2.0713
   -2.7271    3.1148    1.7471
   -2.0417    3.4417    0.1405
   -0.9857    3.4206    1.5697
   -1.8656   -1.7528    1.0234
    1.7079   -1.8701   -2.7522
    2.7692   -1.9059   -1.3274
    3.7541    0.6886   -1.1194
    4.5455    0.4835   -4.7410
    7.5513    3.5309   -4.5621
    7.0631    3.8716   -2.1428
   -2.6566   -2.2164    3.6174
   -3.6022   -1.3446    4.8467
   -5.4680   -2.8569    4.6335
   -4.1371   -4.0062    4.4428
   -4.2802   -3.7786    1.9933
   -5.9748   -3.9379    2.4853
   -6.2780   -1.4911    2.3620
   -5.1683   -1.7705    0.9972
@<BUDE>CONF  5
   -1.6565    4.4015   -0.3391
   -1.4173    2.9239   -0.5377
   -2.1175    1.8977   -0.0354
   -1.4137    0.7161   -0.5816
   -0.4175    1.2374   -1.3106
   -0.3340    2.5795   -1.3428
    0.5581    0.4127   -2.0580
    0.4787   -0.7792   -2.0288
    1.5370    1.0076   -2.7723
    2.4562    0.1697   -3.4780
    3.2268   -0.6739   -2.4908
    3.2868   -1.8934   -2.6397
    3.8403   -0.0978   -1.4609
    4.5624   -0.8883   -0.5358
    4.6718   -2.2762   -0.6834
    5.3530   -3.0357    0.2754
    5.9543   -2.4101    1.3709
    5.8850   -1.0179    1.5008
    5.2008   -0.2620    0.5413
    5.1552    1.0829    0.6488
    5.4594   -4.7637    0.1014
   -3.5956    1.8972    1.0603
   -4.6735    2.5713    0.4055
   -3.2846    2.5719    2.2821
   -4.0654    0.2475    1.4069
   -3.4527   -0.4874    2.4794
   -4.4062   -1.6930    2.5749
   -4.8788   -1.8897    1.1225
   -5.0994   -0.4482    0.6274
   -2.5228    4.5448    0.3032
   -1.8374    4.8717   -1.3034
   -0.7814    4.8506    0.1258
   -1.6613   -0.3228   -0.4205
    3.1483    0.7887   -4.0450
    1.9070   -0.4777   -4.1583
    3.7904    0.9036   -1.3396
    4.2441   -2.7759   -1.5400
    6.4741   -3.0003    2.1111
    6.3563   -0.5218    2.3364
   -2.4523   -0.7864    2.1735
   -3.3979    0.0854    3.4028
   -5.2637   -1.4269    3.1896
   -3.9328   -2.5762    2.9989
   -4.0759   -2.3486    0.5494
   -5.7705   -2.5079    1.0414
   -6.0737   -0.0611    0.9181
   -4.9640   -0.3405   -0.4467
@<BUDE>CONF  6
   -0.4344    0.5899    3.0280
   -1.0464    0.8950    1.6818
   -2.3366    1.1080    1.3888
   -2.3094    1.3583   -0.0695
   -1.0141    1.2496   -0.3953
   -0.1634    0.9644    0.6067
   -0.5068    1.4300   -1.7740
   -1.2657    1.6858   -2.6608
    0.8131    1.3054   -2.0287
    1.2564    1.4885   -3.3758
    2.7541    1.3072   -3.4409
    3.4549    2.1682   -3.9707
    3.3145    0.2168   -2.9254
    4.7179    0.0469   -2.9864
    5.5508    1.0141   -3.5615
    6.9307    0.7943   -3.6494
    7.4901   -0.3792   -3.1364
    6.6674   -1.3306   -2.5215
    5.2876   -1.1082   -2.4378
    4.4951   -2.0106   -1.8214
    7.9562    1.9874   -4.3925
   -3.8147    1.1075    2.4845
   -4.8926    1.7816    1.8297
   -3.5037    1.7822    3.7063
   -4.2845   -0.5422    2.8311
   -3.6718   -1.2771    3.9036
   -4.6253   -2.4827    3.9991
   -5.0979   -2.6794    2.5467
   -5.3185   -1.2379    2.0516
   -1.2169    0.5614    3.7833
    0.2871    1.3638    3.2813
    0.0667   -0.3750    2.9875
   -3.1511    1.5786   -0.7093
    0.9970    2.4911   -3.7092
    0.7734    0.7556   -4.0186
    2.7381   -0.4895   -2.4907
    5.1438    1.9429   -3.9332
    8.5542   -0.5474   -3.2112
    7.0895   -2.2356   -2.1103
   -2.6714   -1.5761    3.5977
   -3.6170   -0.7043    4.8270
   -5.4828   -2.2166    4.6138
   -4.1519   -3.3659    4.4231
   -4.2950   -3.1383    1.9736
   -5.9896   -3.2976    2.4656
   -6.2928   -0.8508    2.3423
   -5.1831   -1.1302    0.9775
@<BUDE>CONF  7
   -1.8620    2.9738    1.1056
   -1.6228    1.4962    0.9070
   -2.3230    0.4700    1.4093
   -1.6192   -0.7116    0.8631
   -0.6230   -0.1903    0.1341
   -0.5395    1.1518    0.1019
    0.3526   -1.0150   -0.6133
    0.2732   -2.2069   -0.5841
    1.3315   -0.4201   -1.3276
    2.2507   -1.2580   -2.0333
    3.2568   -0.3988   -2.7611
    3.4610   -0.5745   -3.9613
    3.9214    0.5475   -2.1040
    4.8641    1.3526   -2.7861
    5.1083    1.1976   -4.1558
    6.0821    1.9776   -4.7912
    6.7960    2.9375   -4.0686
    6.5256    3.1267   -2.7081
    5.5529    2.3431   -2.0757
    5.2704    2.5415   -0.7707
    6.4016    1.7587   -6.4875
   -3.8011    0.4695    2.5050
   -4.8790    1.1436    1.8502
   -3.4901    1.1442    3.7268
   -4.2709   -1.1802    2.8516
   -3.8346   -1.8378    4.0528
   -4.2138   -3.2950    3.7294
   -5.4674   -3.1496    2.8468
   -5.1188   -1.9574    1.9363
   -2.7283    3.1171    1.7479
   -2.0429    3.4440    0.1413
   -0.9869    3.4229    1.5705
   -1.8668   -1.7505    1.0242
    1.7067   -1.8678   -2.7514
    2.7680   -1.9036   -1.3266
    3.7529    0.6909   -1.1186
    4.5443    0.4858   -4.7402
    7.5501    3.5332   -4.5613
    7.0619    3.8739   -2.1420
   -2.7583   -1.7123    4.1507
   -4.3306   -1.4571    4.9432
   -4.4896   -3.8083    4.6482
   -3.4085   -3.8467    3.2489
   -5.5776   -4.0460    2.2401
   -6.3796   -2.9945    3.4191
   -5.9959   -1.3642    1.6863
   -4.6001   -2.2526    1.0266
@<BUDE>CONF  8
   -0.0614    4.3965    1.7536
    0.1778    2.9189    1.5550
   -0.5224    1.8927    2.0573
    0.1814    0.7111    1.5111
    1.1776    1.2324    0.7821
    1.2611    2.5745    0.7499
    2.1532    0.4077    0.0347
    3.0198    0.9343   -0.5976
    2.0635   -0.9388    0.0677
    3.0285   -1.6936   -0.6700
    2.8900   -1.3844   -2.1415
    3.8771   -1.0499   -2.7948
    1.7008   -1.4737   -2.7303
    1.5711   -1.1839   -4.1092
    2.6745   -0.8213   -4.8907
    2.5049   -0.4942   -6.2415
    1.2372   -0.5566   -6.8265
    0.1371   -0.9602   -6.0605
    0.3103   -1.2842   -4.7095
   -0.7433   -1.7000   -3.9750
    3.8762   -0.0153   -7.1995
   -2.0005    1.8922    3.1530
   -3.0784    2.5663    2.4982
   -1.6895    2.5669    4.3748
   -2.4703    0.2425    3.4996
   -2.0340   -0.4151    4.7008
   -2.4132   -1.8723    4.3774
   -3.6668   -1.7269    3.4948
   -3.3182   -0.5347    2.5843
   -0.9277    4.5398    2.3959
   -0.2423    4.8667    0.7893
    0.8137    4.8456    2.2185
   -0.0662   -0.3278    1.6722
    2.8606   -2.7557   -0.5046
    4.0289   -1.4275   -0.3354
    0.8910   -1.7484   -2.1929
    3.6678   -0.7997   -4.4675
    1.1099   -0.2981   -7.8673
   -0.8453   -1.0243   -6.5045
   -0.9577   -0.2896    4.7987
   -2.5300   -0.0344    5.5912
   -2.6890   -2.3856    5.2962
   -1.6079   -2.4240    3.8969
   -3.7770   -2.6233    2.8881
   -4.5790   -1.5718    4.0671
   -4.1953    0.0585    2.3343
   -2.7995   -0.8299    1.6746
@<BUDE>CONF  9
    1.0642   -1.2495    3.2669
    0.4522   -0.9444    1.9207
   -0.8380   -0.7314    1.6277
   -0.8108   -0.4811    0.1694
    0.4845   -0.5898   -0.1564
    1.3352   -0.8750    0.8456
    0.9918   -0.4094   -1.5351
    2.1601   -0.5197   -1.7605
    0.1345   -0.1204   -2.5369
    0.6710    0.0450   -3.8521
    1.6128    1.2252   -3.8658
    2.7503    1.0986   -4.3164
    1.2118    2.4010   -3.3907
    2.0943    3.5069   -3.4035
    3.3886    3.4080   -3.9278
    4.2539    4.5077   -3.8819
    3.8213    5.7210   -3.3398
    2.5138    5.8383   -2.8533
    1.6523    4.7356   -2.8986
    0.3825    4.8528   -2.4555
    5.8714    4.3689   -4.5082
   -2.3161   -0.7319    2.7234
   -3.3940   -0.0578    2.0686
   -2.0051   -0.0572    3.9452
   -2.7859   -2.3816    3.0700
   -2.1732   -3.1165    4.1425
   -3.1267   -4.3221    4.2380
   -3.5993   -4.5188    2.7856
   -3.8199   -3.0773    2.2905
    0.2817   -1.2780    4.0222
    1.7857   -0.4756    3.5202
    1.5653   -2.2144    3.2264
   -1.6525   -0.2608   -0.4704
   -0.1409    0.2198   -4.5549
    1.2117   -0.8547   -4.1383
    0.2776    2.5038   -3.0209
    3.7318    2.4903   -4.3822
    4.4937    6.5652   -3.3013
    2.1640    6.7742   -2.4433
   -1.1728   -3.4155    3.8366
   -2.1184   -2.5437    5.0659
   -3.9842   -4.0560    4.8527
   -2.6533   -5.2053    4.6620
   -2.7964   -4.9777    2.2125
   -4.4910   -5.1370    2.7045
   -4.7942   -2.6902    2.5812
   -3.6845   -2.9696    1.2164
@<BUDE>CONF  10
   -1.7830    2.7777    1.0482
   -1.5438    1.3001    0.8496
   -2.2440    0.2739    1.3519
   -1.5402   -0.9077    0.8057
   -0.5440   -0.3864    0.0767
   -0.4605    0.9557    0.0445
    0.4316   -1.2111   -0.6707
    0.3522   -2.4030   -0.6415
    1.4105   -0.6162   -1.3850
    1.4641    0.8128   -1.3890
    2.6238    1.2697   -2.2414
    2.4435    2.1011   -3.1298
    3.8395    0.7729   -2.0310
    4.9261    1.2010   -2.8297
    4.7651    2.1612   -3.8357
    5.8505    2.5282   -4.6404
    7.1093    1.9606   -4.4252
    7.2859    1.0318   -3.3927
    6.1976    0.6655   -2.5917
    6.3702   -0.2090   -1.5779
    5.6363    3.7001   -5.9086
   -3.7221    0.2734    2.4476
   -4.8000    0.9475    1.7928
   -3.4111    0.9481    3.6694
   -4.1919   -1.3763    2.7942
   -3.5792   -2.1112    3.8667
   -4.5327   -3.3168    3.9622
   -5.0053   -3.5135    2.5098
   -5.2259   -2.0720    2.0147
   -2.6493    2.9210    1.6905
   -1.9639    3.2479    0.0839
   -0.9079    3.2268    1.5131
   -1.7878   -1.9466    0.9668
    1.5973    1.1730   -0.3711
    0.5360    1.2087   -1.7959
    3.9863    0.0903   -1.3012
    3.8093    2.6374   -3.9967
    7.9426    2.2423   -5.0518
    8.2566    0.5956   -3.2086
   -2.5788   -2.4102    3.5608
   -3.5244   -1.5384    4.7901
   -5.3902   -3.0507    4.5769
   -4.0593   -4.2000    4.3862
   -4.2024   -3.9724    1.9367
   -5.8970   -4.1317    2.4287
   -6.2002   -1.6849    2.3054
   -5.0905   -1.9643    0.9406
@<BUDE>CONF  11
   -1.7842    2.7800    1.0491
   -1.5450    1.3024    0.8505
   -2.2452    0.2762    1.3528
   -1.5414   -0.9054    0.8066
   -0.5452   -0.3841    0.0776
   -0.4617    0.9580    0.0454
    0.4304   -1.2088   -0.6698
    0.3510   -2.4007   -0.6406
    1.4093   -0.6139   -1.3841
    1.4629    0.8151   -1.3881
    2.6226    1.2720   -2.2405
    2.4423    2.1034   -3.1289
    3.8383    0.7752   -2.0301
    4.9249    1.2033   -2.8288
    4.7639    2.1635   -3.8348
    5.8493    2.5305   -4.6395
    7.1081    1.9629   -4.4243
    7.2847    1.0341   -3.3918
    6.1964    0.6678   -2.5908
    6.3690   -0.2067   -1.5770
    5.6351    3.7024   -5.9077
   -3.7233    0.2757    2.4485
   -4.8012    0.9498    1.7937
   -3.4123    0.9504    3.6703
   -4.1931   -1.3740    2.7951
   -3.7568   -2.0316    3.9963
   -4.1360   -3.4888    3.6729
   -5.3896   -3.3434    2.7903
   -5.0410   -2.1512    1.8798
   -2.6505    2.9233    1.6914
   -1.9651    3.2502    0.0848
   -0.9091    3.2291    1.5140
   -1.7890   -1.9443    0.9677
    1.5961    1.1753   -0.3702
    0.5348    1.2110   -1.7950
    3.9851    0.0926   -1.3003
    3.8081    2.6397   -3.9958
    7.9414    2.2446   -5.0509
    8.2554    0.5979   -3.2077
   -2.6805   -1.9061    4.0942
   -4.2528   -1.6509    4.8867
   -4.4118   -4.0021    4.5917
   -3.3307   -4.0405    3.1924
   -5.4998   -4.2398    2.1836
   -6.3018   -3.1883    3.3626
   -5.9181   -1.5580    1.6298
   -4.5223   -2.4464    0.9701
@<BUDE>CONF  12
   -0.4705    0.6269    2.8179
   -1.0825    0.9320    1.4717
   -2.3727    1.1450    1.1787
   -2.3455    1.3953   -0.2796
   -1.0502    1.2866   -0.6054
   -0.1995    1.0014    0.3966
   -0.5429    1.4670   -1.9841
   -1.3018    1.7228   -2.8709
    0.7770    1.3424   -2.2388
    1.6452    1.0356   -1.1447
    3.0674    0.9412   -1.6431
    3.9570    1.5845   -1.0882
    3.3574    0.1627   -2.6817
    4.6901    0.0743   -3.1487
    5.7333    0.7738   -2.5303
    7.0330    0.7029   -3.0460
    7.3037   -0.0909   -4.1640
    6.2727   -0.8265   -4.7605
    4.9738   -0.7510   -4.2433
    3.9830   -1.4802   -4.7991
    8.3190    1.5987   -2.2904
   -3.8508    1.1445    2.2744
   -4.9287    1.8186    1.6196
   -3.5398    1.8192    3.4962
   -4.3206   -0.5052    2.6210
   -3.7079   -1.2401    3.6935
   -4.6614   -2.4457    3.7890
   -5.1340   -2.6424    2.3366
   -5.3546   -1.2009    1.8415
   -1.2530    0.5984    3.5732
    0.2510    1.4008    3.0712
    0.0306   -0.3380    2.7774
   -3.1872    1.6156   -0.9194
    1.3507    0.0853   -0.7044
    1.5742    1.8208   -0.3950
    2.6262   -0.3651   -3.1364
    5.5528    1.3658   -1.6452
    8.3065   -0.1384   -4.5620
    6.4720   -1.4531   -5.6172
   -2.7075   -1.5391    3.3876
   -3.6531   -0.6673    4.6169
   -5.5189   -2.1796    4.4037
   -4.1880   -3.3289    4.2130
   -4.3311   -3.1013    1.7635
   -6.0257   -3.2606    2.2555
   -6.3289   -0.8138    2.1322
   -5.2192   -1.0932    0.7674
