@<TRIPOS>MOLECULE
ZINC61464195
   55    56     0     0     0
SMALL
USER_CHARGES

@<TRIPOS>ATOM
      1 C1          6.1125    6.6388    2.5406 C.3       1 <0>        -0.1456
      2 C2          6.1447    5.1092    2.5287 C.3       1 <0>        -0.0579
      3 C3          6.8898    4.6051    3.7663 C.3       1 <0>        -0.1456
      4 C4          4.7348    4.5769    2.5398 C.ar      1 <0>        -0.0771
      5 C5          3.8872    4.8908    3.5865 C.ar      1 <0>        -0.0943
      6 C6          2.5949    4.4046    3.6003 C.ar      1 <0>        -0.0923
      7 C7          2.1462    3.5993    2.5603 C.ar      1 <0>        -0.1041
      8 C8          3.0006    3.2863    1.5099 C.ar      1 <0>        -0.1315
      9 C9          4.2900    3.7804    1.5003 C.ar      1 <0>        -0.0969
     10 S1          0.4981    2.9761    2.5738 S.3       1 <0>        -0.0341
     11 C10         0.3845    2.0028    1.0473 C.3       1 <0>        -0.1267
     12 C11        -0.9944    1.4054    0.9339 C.2       1 <0>         0.4864
     13 O1         -1.8162    1.6147    1.7946 O.2       1 <0>        -0.4815
     14 O2         -1.3097    0.6407   -0.1233 O.3       1 <0>        -0.3231
     15 C12        -2.6347    0.1071   -0.1659 C.3       1 <0>         0.0526
     16 C13        -2.8037   -0.7186   -1.4152 C.2       1 <0>         0.5250
     17 O3         -1.8805   -0.8383   -2.1925 O.2       1 <0>        -0.5082
     18 N1         -3.9809   -1.3240   -1.6687 N.am      1 <0>        -0.5981
     19 C14        -5.0961   -1.1794   -0.7297 C.3       1 <0>         0.0731
     20 C15        -4.1453   -2.1266   -2.8831 C.3       1 <0>         0.1010
     21 C16        -3.7597   -3.5551   -2.5972 C.2       1 <0>         0.4997
     22 O4         -3.3846   -3.8716   -1.4880 O.2       1 <0>        -0.5061
     23 N2         -3.8318   -4.4810   -3.5739 N.am      1 <0>        -0.6702
     24 C17        -3.3855   -5.7861   -3.3354 C.ar      1 <0>         0.1553
     25 C18        -3.5467   -6.3582   -2.0805 C.ar      1 <0>        -0.1106
     26 C19        -3.1058   -7.6464   -1.8483 C.ar      1 <0>        -0.0959
     27 C20        -2.5037   -8.3668   -2.8637 C.ar      1 <0>        -0.1208
     28 C21        -2.3413   -7.8009   -4.1147 C.ar      1 <0>        -0.0919
     29 C22        -2.7854   -6.5142   -4.3555 C.ar      1 <0>        -0.0639
     30 Cl1        -2.5878   -5.8065   -5.9283 Cl        1 <0>        -0.0632
     31 H1          7.1322    7.0237    2.5326 H         1 <0>         0.0596
     32 H2          5.5816    6.9979    1.6589 H         1 <0>         0.0563
     33 H3          5.6006    6.9844    3.4387 H         1 <0>         0.0575
     34 H4          6.6565    4.7635    1.6305 H         1 <0>         0.0784
     35 H5          7.9095    4.9901    3.7583 H         1 <0>         0.0596
     36 H6          6.3780    4.9508    4.6644 H         1 <0>         0.0574
     37 H7          6.9127    3.5154    3.7578 H         1 <0>         0.0563
     38 H8          4.2366    5.5167    4.3944 H         1 <0>         0.1285
     39 H9          1.9337    4.6495    4.4184 H         1 <0>         0.1293
     40 H10         2.6553    2.6608    0.7000 H         1 <0>         0.1227
     41 H11         4.9533    3.5410    0.6823 H         1 <0>         0.1262
     42 H12         0.5722    2.6488    0.1896 H         1 <0>         0.1329
     43 H13         1.1258    1.2040    1.0696 H         1 <0>         0.1329
     44 H14        -2.8020   -0.5202    0.7096 H         1 <0>         0.1063
     45 H15        -3.3556    0.9246   -0.1703 H         1 <0>         0.1054
     46 H16        -5.6923   -0.3093   -1.0049 H         1 <0>         0.0686
     47 H17        -5.7193   -2.0729   -0.7654 H         1 <0>         0.0794
     48 H18        -4.7064   -1.0483    0.2798 H         1 <0>         0.0778
     49 H19        -5.1858   -2.0887   -3.2057 H         1 <0>         0.1198
     50 H20        -3.5059   -1.7285   -3.6711 H         1 <0>         0.1233
     51 H21        -4.1929   -4.2430   -4.4421 H         1 <0>         0.4142
     52 H22        -4.0162   -5.7963   -1.2866 H         1 <0>         0.1473
     53 H23        -3.2311   -8.0915   -0.8723 H         1 <0>         0.1337
     54 H24        -2.1593   -9.3736   -2.6790 H         1 <0>         0.1349
     55 H25        -1.8703   -8.3659   -4.9054 H         1 <0>         0.1385
@<TRIPOS>BOND
     1    1    2 1
     2    1   31 1
     3    1   32 1
     4    1   33 1
     5    2    3 1
     6    2    4 1
     7    2   34 1
     8    3   35 1
     9    3   36 1
    10    3   37 1
    11    4    9 ar
    12    4    5 ar
    13    5    6 ar
    14    5   38 1
    15    6    7 ar
    16    6   39 1
    17    7    8 ar
    18    7   10 1
    19    8    9 ar
    20    8   40 1
    21    9   41 1
    22   10   11 1
    23   11   12 1
    24   11   42 1
    25   11   43 1
    26   12   13 2
    27   12   14 1
    28   14   15 1
    29   15   16 1
    30   15   44 1
    31   15   45 1
    32   16   17 2
    33   16   18 am
    34   18   19 1
    35   18   20 1
    36   19   46 1
    37   19   47 1
    38   19   48 1
    39   20   21 1
    40   20   49 1
    41   20   50 1
    42   21   22 2
    43   21   23 am
    44   23   24 1
    45   23   51 1
    46   24   29 ar
    47   24   25 ar
    48   25   26 ar
    49   25   52 1
    50   26   27 ar
    51   26   53 1
    52   27   28 ar
    53   27   54 1
    54   28   29 ar
    55   28   55 1
    56   29   30 1
@<BUDE>CONF  1
    1.1380   -2.4806   -5.3071
    0.5326   -2.0404   -3.9773
    1.5052   -2.3570   -2.8449
    0.2694   -0.5540   -4.0126
   -1.0482   -0.1081   -3.8549
   -1.3149    1.2643   -3.7826
   -0.2728    2.1958   -3.8604
    1.0413    1.7614   -4.0708
    1.2955    0.3888   -4.1762
   -0.6247    3.9230   -3.6990
   -0.5178    4.4015   -1.9463
   -1.5337    3.6189   -1.1490
   -2.5620    4.1323   -0.8221
   -1.2800    2.3384   -0.8051
   -2.2717    1.6375   -0.0500
   -1.7926    0.2325    0.2266
   -2.4562   -0.7297   -0.1565
   -0.6537    0.0347    0.8842
    0.1394    1.1846    1.3420
   -0.1888   -1.3338    1.1527
    0.3299   -1.4195    2.5683
    1.4473   -1.8849    2.7863
   -0.4220   -0.9917    3.5786
    0.0641   -1.0720    4.9051
   -0.7821   -1.4969    5.9362
   -0.2949   -1.5816    7.2459
    1.0296   -1.2360    7.5283
    1.8728   -0.7980    6.5001
    1.3892   -0.7203    5.1886
    2.4328   -0.1727    3.9085
    2.0799   -1.9597   -5.4661
    1.3153   -3.5539   -5.2865
    0.4497   -2.2415   -6.1151
   -0.4032   -2.5698   -3.8112
    1.0673   -2.0541   -1.8962
    2.4355   -1.8159   -3.0048
    1.7053   -3.4264   -2.8279
   -1.8663   -0.8082   -3.7715
   -2.3131    1.6569   -3.6567
    1.8325    2.4925   -4.1476
    2.3091    0.0731   -4.3741
    0.4805    4.1863   -1.5711
   -0.7217    5.4657   -1.8471
   -3.1996    1.5986   -0.6168
   -2.4430    2.1537    0.8923
   -0.4526    1.7801    2.0339
    1.0364    0.8287    1.8443
    0.4201    1.7946    0.4859
   -1.0164   -2.0287    1.0264
    0.6087   -1.5882    0.4576
   -1.3394   -0.6096    3.3984
   -1.8067   -1.7651    5.7245
   -0.9472   -1.9169    8.0388
    1.4060   -1.3053    8.5381
    2.8946   -0.5243    6.7177
@<BUDE>CONF  2
    3.9180    5.2005   -2.2903
    2.4883    5.2180   -2.8235
    2.4579    4.6043   -4.2203
    1.5991    4.4166   -1.9033
    0.5312    5.0692   -1.2760
   -0.3714    4.3363   -0.4962
   -0.2184    2.9532   -0.3433
    0.8758    2.3007   -0.9235
    1.7930    3.0462   -1.6736
   -1.4092    2.0358    0.5913
   -2.7360    1.4627   -0.5149
   -3.7519    0.6801    0.2824
   -4.7802    1.1935    0.6093
   -3.4982   -0.6004    0.6263
   -4.4899   -1.3013    1.3814
   -4.0108   -2.7063    1.6580
   -4.6744   -3.6685    1.2749
   -2.8719   -2.9041    2.3156
   -2.0788   -1.7542    2.7734
   -2.4070   -4.2726    2.5841
   -0.9217   -4.3585    2.3255
   -0.1743   -4.8238    3.1843
   -0.4227   -3.9309    1.1692
    0.9690   -4.0114    0.9268
    1.6362   -2.9430    0.3159
    3.0146   -3.0241    0.0846
    3.7243   -4.1703    0.4536
    3.0556   -5.2448    1.0522
    1.6787   -5.1618    1.2914
    0.8432   -6.4967    2.0315
    4.2792    4.1748   -2.2565
    4.5563    5.7890   -2.9462
    3.9362    5.6253   -1.2888
    2.1303    6.2443   -2.8696
    1.4403    4.6288   -4.6044
    2.8028    3.5736   -4.1706
    3.1091    5.1739   -4.8802
    0.3805    6.1318   -1.3962
   -1.2129    4.7933    0.0034
    0.9912    1.2363   -0.7813
    2.6503    2.5334   -2.0840
   -3.2208    2.3208   -0.9759
   -2.3138    0.8248   -1.2886
   -5.4178   -1.3402    0.8146
   -4.6612   -0.7851    2.3237
   -2.6708   -1.1587    3.4653
   -1.1818   -2.1101    3.2757
   -1.7981   -1.1442    1.9173
   -2.6102   -4.5268    3.6223
   -2.9303   -4.9675    1.9307
   -1.0375   -3.5490    0.4646
    1.0934   -2.0547    0.0281
    3.5289   -2.1956   -0.3800
    4.7882   -4.2308    0.2785
    3.6013   -6.1338    1.3320
@<BUDE>CONF  3
    1.6414    5.2329   -1.4282
    0.1160    5.2004   -1.4026
   -0.4052    4.6877   -2.7420
   -0.3485    4.2818   -0.2979
   -1.1319    4.8206    0.7295
   -1.6624    3.9795    1.7149
   -1.4209    2.6010    1.6777
   -0.5957    2.0605    0.6844
   -0.0412    2.9130   -0.2776
   -2.1569    1.5473    2.8947
   -3.7783    0.9742    2.2988
   -3.5957    0.1916    1.0204
   -3.8269    0.7049   -0.0336
   -3.1711   -1.0890    1.0683
   -3.0131   -1.7899   -0.1681
   -2.5340   -3.1949    0.1085
   -3.1976   -4.1571   -0.2746
   -1.3951   -3.3927    0.7661
   -0.9301   -4.7611    1.0345
   -0.6019   -2.2428    1.2238
    0.8608   -2.5012    0.9522
    1.6856   -2.3732    1.8556
    1.2564   -2.8672   -0.2638
    2.6271   -3.1094   -0.5183
    3.2135   -2.6393   -1.6994
    4.5717   -2.8751   -1.9437
    5.3411   -3.5845   -1.0172
    4.7524   -4.0667    0.1580
    3.3962   -3.8248    0.4073
    2.6598   -4.4258    1.8647
    2.0217    4.2317   -1.6193
    1.9760    5.9052   -2.2155
    2.0122    5.5852   -0.4678
   -0.2658    6.2033   -1.2239
   -1.4931    4.6768   -2.7270
   -0.0341    3.6794   -2.9130
   -0.0594    5.3422   -3.5395
   -1.3492    5.8778    0.7675
   -2.2759    4.3467    2.5243
   -0.4031    0.9978    0.6794
    0.6215    2.4848   -1.0150
   -4.2373    0.3364    3.0514
   -4.4198    1.8323    2.1095
   -2.2825   -1.2736   -0.7875
   -3.9678   -1.8288   -0.6884
   -0.7722   -5.2813    0.0920
    0.0047   -4.7234    1.5898
   -1.6795   -5.2898    1.6200
   -0.9183   -1.3492    0.6897
   -0.7536   -2.1006    2.2918
    0.5782   -2.9721   -1.0049
    2.6243   -2.0909   -2.4194
    5.0241   -2.5051   -2.8520
    6.3896   -3.7627   -1.2042
    5.3439   -4.6206    0.8719
@<BUDE>CONF  4
   -6.9209    2.1790   -2.3009
   -6.2202    1.1457   -1.4234
   -5.9564   -0.1184   -2.2365
   -4.9087    1.7101   -0.9324
   -4.7186    1.8461    0.4479
   -3.4795    2.2715    0.9415
   -2.4254    2.5563    0.0654
   -2.6221    2.4737   -1.3181
   -3.8744    2.0804   -1.8049
   -0.8472    3.0273    0.7139
    0.1693    1.5401    0.9734
    0.3736    0.8347   -0.3460
   -0.2754   -0.1322   -0.6143
    1.2900    1.2966   -1.2230
    1.4480    0.5957   -2.4594
    1.9271   -0.8093   -2.1828
    1.2635   -1.7715   -2.5659
    3.0660   -1.0071   -1.5252
    3.8591    0.1428   -1.0674
    3.5309   -2.3756   -1.2567
    4.0496   -2.4613    0.1589
    5.1670   -2.9267    0.3769
    3.2977   -2.0335    1.1692
    3.7838   -2.1138    2.4957
    2.9376   -2.5387    3.5268
    3.4248   -2.6234    4.8365
    4.7493   -2.2778    5.1189
    5.5925   -1.8398    4.0907
    5.1089   -1.7621    2.7792
    6.1525   -1.2145    1.4991
   -6.2935    2.4102   -3.1591
   -7.8722    1.7773   -2.6439
   -7.0959    3.0848   -1.7241
   -6.8521    0.9043   -0.5713
   -5.4681   -0.8588   -1.6064
   -5.3129    0.1218   -3.0804
   -6.9004   -0.5176   -2.6016
   -5.5102    1.6123    1.1443
   -3.2827    2.3872    1.9971
   -1.8053    2.7146   -1.9823
   -4.0194    2.0566   -2.8749
    1.1352    1.8272    1.3838
   -0.3359    0.8712    1.6671
    2.1786    1.1120   -3.0788
    0.4933    0.5568   -2.9797
    3.2671    0.7383   -0.3755
    4.7561   -0.2131   -0.5651
    4.1398    0.7528   -1.9235
    2.7033   -3.0705   -1.3830
    4.3284   -2.6300   -1.9518
    2.3803   -1.6514    0.9890
    1.9130   -2.8069    3.3151
    2.7725   -2.9587    5.6294
    5.1257   -2.3471    6.1287
    6.6143   -1.5661    4.3083
@<BUDE>CONF  5
   -1.0953    5.6618    5.6052
   -2.1382    4.5841    5.3233
   -3.5166    5.2279    5.2037
   -1.7980    3.8817    4.0308
   -1.5413    2.5060    4.0693
   -1.3211    1.8051    2.8776
   -1.3620    2.4682    1.6453
   -1.5659    3.8525    1.6006
   -1.7513    4.5518    2.7991
   -1.1481    1.5508    0.1467
   -2.7695    0.9777   -0.4492
   -2.5869    0.1951   -1.7276
   -2.8181    0.7084   -2.7816
   -2.1623   -1.0855   -1.6797
   -2.0043   -1.7864   -2.9161
   -1.5252   -3.1914   -2.6395
   -2.1888   -4.1536   -3.0226
   -0.3863   -3.3892   -1.9819
    0.0787   -4.7576   -1.7135
    0.4069   -2.2393   -1.5242
    1.8696   -2.4977   -1.7958
    2.6944   -2.3697   -0.8924
    2.2652   -2.8637   -3.0118
    3.6359   -3.1059   -3.2663
    4.2223   -2.6358   -4.4474
    5.5805   -2.8716   -4.6917
    6.3499   -3.5810   -3.7652
    5.7612   -4.0632   -2.5900
    4.4050   -3.8213   -2.3407
    3.6686   -4.4223   -0.8833
   -1.0994    6.3899    4.7969
   -1.3330    6.1590    6.5434
   -0.1111    5.2033    5.6763
   -2.1438    3.8621    6.1371
   -4.2610    4.4572    5.0151
   -3.5137    5.9394    4.3806
   -3.7561    5.7454    6.1304
   -1.5254    1.9690    5.0061
   -1.1239    0.7435    2.8552
   -1.5762    4.3534    0.6439
   -1.8714    5.6239    2.7488
   -3.2285    0.3399    0.3034
   -3.4110    1.8358   -0.6385
   -1.2737   -1.2701   -3.5355
   -2.9590   -1.8253   -3.4364
    0.2366   -5.2778   -2.6560
    1.0135   -4.7199   -1.1582
   -0.6707   -5.2863   -1.1280
    0.0905   -1.3457   -2.0583
    0.2552   -2.0971   -0.4562
    1.5870   -2.9686   -3.7529
    3.6331   -2.0874   -5.1674
    6.0329   -2.5016   -5.6000
    7.3984   -3.7592   -3.9522
    6.3527   -4.6171   -1.8761
@<BUDE>CONF  6
   -0.5012    3.5179    5.4253
   -1.7612    3.2400    4.6106
   -2.4404    4.5598    4.2564
   -1.3886    2.5105    3.3422
   -1.9236    1.2349    3.1271
   -1.6797    0.5722    1.9183
   -0.9095    1.1782    0.9186
   -0.3270    2.4308    1.1451
   -0.5475    3.0722    2.3698
   -0.6700    0.3513   -0.6280
   -1.9951    0.8277   -1.7810
   -1.7908    0.1223   -3.1004
   -2.4398   -0.8446   -3.3687
   -0.8744    0.5842   -3.9774
   -0.7164   -0.1167   -5.2138
   -0.2373   -1.5217   -4.9372
   -0.9009   -2.4839   -5.3203
    0.9016   -1.7195   -4.2796
    1.6947   -0.5696   -3.8218
    1.3665   -3.0880   -4.0111
    1.8852   -3.1737   -2.5955
    3.0026   -3.6391   -2.3775
    1.1333   -2.7459   -1.5852
    1.6194   -2.8262   -0.2587
    0.7732   -3.2511    0.7724
    1.2604   -3.3358    2.0821
    2.5849   -2.9902    2.3645
    3.4281   -2.5522    1.3363
    2.9445   -2.4745    0.0248
    3.9881   -1.9269   -1.2553
    0.1746    4.1427    4.8451
   -0.7712    4.0317    6.3456
   -0.0103    2.5770    5.6651
   -2.4432    2.6255    5.1945
   -3.3452    4.3598    3.6863
   -1.7625    5.1674    3.6607
   -2.6969    5.0916    5.1704
   -2.5381    0.7559    3.8750
   -2.0740   -0.4101    1.7037
    0.2802    2.8777    0.3718
   -0.0616    4.0213    2.5414
   -2.9591    0.5436   -1.3641
   -1.9703    1.9040   -1.9383
    0.0142    0.3996   -5.8332
   -1.6711   -0.1556   -5.7341
    1.1027    0.0259   -3.1299
    2.5917   -0.9255   -3.3195
    1.9754    0.0404   -4.6779
    0.5389   -3.7829   -4.1374
    2.1640   -3.3424   -4.7062
    0.2159   -2.3638   -1.7654
   -0.2514   -3.5193    0.5607
    0.6081   -3.6711    2.8750
    2.9613   -3.0595    3.3743
    4.4499   -2.2785    1.5539
@<BUDE>CONF  7
   -1.4697    3.1713    7.0029
   -2.7297    2.8934    6.1882
   -3.4089    4.2132    5.8340
   -2.3571    2.1639    4.9198
   -2.8921    0.8883    4.7047
   -2.6482    0.2256    3.4959
   -1.8780    0.8316    2.4962
   -1.2955    2.0842    2.7227
   -1.5160    2.7256    3.9474
   -1.6385    0.0047    0.9496
   -2.9636    0.4811   -0.2034
   -2.7593   -0.2243   -1.5228
   -3.4083   -1.1912   -1.7911
   -1.8429    0.2376   -2.3998
   -1.6849   -0.4633   -3.6362
   -1.2058   -1.8683   -3.3596
   -1.8694   -2.8305   -3.7427
   -0.0669   -2.0661   -2.7020
    0.3981   -3.4345   -2.4336
    0.7263   -0.9162   -2.2443
    2.1890   -1.1746   -2.5159
    3.0138   -1.0466   -1.6125
    2.5846   -1.5406   -3.7319
    3.9553   -1.7828   -3.9864
    4.3404   -2.8917   -4.7490
    5.6973   -3.1234   -5.0043
    6.6678   -2.2568   -4.4940
    6.2846   -1.1551   -3.7198
    4.9276   -0.9177   -3.4703
    4.4473    0.4482   -2.5053
   -0.7939    3.7961    6.4227
   -1.7397    3.6851    7.9232
   -0.9788    2.2304    7.2427
   -3.4117    2.2789    6.7721
   -4.3137    4.0132    5.2639
   -2.7310    4.8208    5.2383
   -3.6654    4.7450    6.7480
   -3.5066    0.4093    5.4526
   -3.0425   -0.7567    3.2813
   -0.6883    2.5311    1.9494
   -1.0301    3.6747    4.1190
   -3.9276    0.1970    0.2135
   -2.9388    1.5574   -0.3607
   -0.9543    0.0530   -4.2556
   -2.6396   -0.5022   -4.1565
    0.5560   -3.9547   -3.3761
    1.3329   -3.3968   -1.8783
   -0.3513   -3.9632   -1.8481
    0.4099   -0.0226   -2.7784
    0.5746   -0.7740   -1.1763
    1.9064   -1.6455   -4.4730
    3.5953   -3.5653   -5.1460
    5.9920   -3.9753   -5.5993
    7.7142   -2.4337   -4.6944
    7.0337   -0.4881   -3.3192
@<BUDE>CONF  8
   -1.5545    6.0934   -1.1173
   -1.2492    4.6076   -1.2843
    0.2382    4.3632   -1.0465
   -2.0550    3.8137   -0.2842
   -2.9694    2.8698   -0.7665
   -3.6597    2.0470    0.1315
   -3.4382    2.1560    1.5095
   -2.5652    3.1323    2.0040
   -1.9044    3.9741    1.1014
   -4.2710    1.0602    2.6224
   -3.2545   -0.4270    2.8819
   -3.0502   -1.1324    1.5625
   -3.6992   -2.0993    1.2942
   -2.1338   -0.6705    0.6855
   -1.9758   -1.3714   -0.5509
   -1.4967   -2.7764   -0.2743
   -2.1603   -3.7386   -0.6574
   -0.3578   -2.9742    0.3833
    0.1072   -4.3426    0.6517
    0.4354   -1.8243    0.8410
    1.8981   -2.0827    0.5694
    2.7229   -1.9547    1.4728
    2.2937   -2.4487   -0.6466
    3.6644   -2.6909   -0.9011
    4.0495   -3.7998   -1.6637
    5.4064   -4.0315   -1.9190
    6.3769   -3.1649   -1.4087
    5.9937   -2.0632   -0.6345
    4.6367   -1.8258   -0.3850
    4.1564   -0.4599    0.5800
   -1.2792    6.4090   -0.1132
   -0.9839    6.6645   -1.8468
   -2.6177    6.2643   -1.2732
   -1.5124    4.2937   -2.2921
    0.4568    3.3056   -1.1781
    0.4972    4.6645   -0.0336
    0.8192    4.9457   -1.7585
   -3.1417    2.7529   -1.8262
   -4.3710    1.3014   -0.1918
   -2.4185    3.2171    3.0706
   -1.2623    4.7448    1.5016
   -2.2886   -0.1399    3.2923
   -3.7597   -1.0959    3.5756
   -1.2452   -0.8551   -1.1703
   -2.9305   -1.4103   -1.0712
    0.2651   -4.8628   -0.2908
    1.0420   -4.3049    1.2070
   -0.6422   -4.8713    1.2372
    0.1190   -0.9307    0.3069
    0.2837   -1.6821    1.9090
    1.6155   -2.5536   -1.3877
    3.3044   -4.4734   -2.0607
    5.7011   -4.8834   -2.5140
    7.4233   -3.3418   -1.6091
    6.7428   -1.3962   -0.2339
@<BUDE>CONF  9
    2.6247    5.5618   -3.0088
    1.0993    5.5293   -2.9832
    0.5781    5.0166   -4.3226
    0.6348    4.6107   -1.8785
   -0.1486    5.1495   -0.8511
   -0.6791    4.3084    0.1343
   -0.4376    2.9299    0.0971
    0.3876    2.3894   -0.8962
    0.9421    3.2419   -1.8582
   -1.1736    1.8762    1.3141
   -2.7950    1.3031    0.7182
   -2.6124    0.5205   -0.5602
   -2.8436    1.0338   -1.6142
   -2.1878   -0.7601   -0.5123
   -2.0298   -1.4610   -1.7487
   -1.5507   -2.8660   -1.4721
   -2.2143   -3.8282   -1.8552
   -0.4118   -3.0638   -0.8145
    0.3813   -1.9139   -0.3567
    0.0531   -4.4323   -0.5460
    0.5718   -4.5180    0.8696
    1.6892   -4.9834    1.0876
   -0.1801   -4.0902    1.8799
    0.3060   -4.1705    3.2064
    1.3425   -5.0577    3.5197
    1.8250   -5.1286    4.8320
    1.2703   -4.3235    5.8307
    0.2245   -3.4456    5.5213
   -0.2536   -3.3679    4.2078
   -1.5559   -2.2811    3.8199
    3.0050    4.5606   -3.1999
    2.9593    6.2341   -3.7961
    2.9955    5.9141   -2.0484
    0.7175    6.5322   -2.8045
   -0.5098    5.0057   -4.3076
    0.9492    4.0083   -4.4936
    0.9239    5.6711   -5.1201
   -0.3659    6.2067   -0.8131
   -1.2926    4.6756    0.9437
    0.5802    1.3267   -0.9012
    1.6048    2.8137   -2.5956
   -3.2540    0.6653    1.4708
   -3.4365    2.1612    0.5289
   -1.2992   -0.9447   -2.3681
   -2.9845   -1.4999   -2.2690
   -0.2107   -1.3184    0.3352
    1.2783   -2.2698    0.1456
    0.6620   -1.3039   -1.2128
   -0.7745   -5.1272   -0.6723
    0.8506   -4.6867   -1.2411
   -1.0975   -3.7081    1.6997
    1.7751   -5.6829    2.7525
    2.6300   -5.8084    5.0701
    1.6455   -4.3757    6.8420
   -0.2096   -2.8274    6.2931
@<BUDE>CONF  10
    1.5108    5.7413    2.2992
    0.8411    5.7129    0.9283
    1.8714    5.3419   -0.1345
   -0.2679    4.6883    0.9321
   -1.5753    5.1227    0.6837
   -2.6121    4.1876    0.5810
   -2.3510    2.8191    0.7185
   -1.0564    2.3794    1.0191
   -0.0314    3.3233    1.1540
   -3.6645    1.6498    0.5179
   -3.7667    1.1475   -1.2285
   -2.4672    0.4987   -1.6415
   -1.6633    1.1180   -2.2724
   -2.2135   -0.7818   -1.2976
   -3.2052   -1.4827   -0.5425
   -2.7261   -2.8877   -0.2659
   -3.3897   -3.8499   -0.6490
   -1.5872   -3.0855    0.3917
   -0.7941   -1.9356    0.8495
   -1.1223   -4.4540    0.6602
    0.3630   -4.5399    0.4016
    1.1104   -5.0052    1.2604
    0.8620   -4.1123   -0.7547
    2.2537   -4.1928   -0.9971
    2.9209   -3.1244   -1.6080
    4.2993   -3.2055   -1.8393
    5.0090   -4.3517   -1.4703
    4.3403   -5.4262   -0.8717
    2.9634   -5.3432   -0.6325
    2.1279   -6.6781    0.1076
    1.9356    4.7632    2.5150
    2.3013    6.4890    2.3005
    0.7723    5.9921    3.0578
    0.4268    6.6940    0.7059
    1.3955    5.3341   -1.1129
    2.2747    4.3547    0.0813
    2.6773    6.0729   -0.1282
   -1.7979    6.1714    0.5533
   -3.6354    4.4729    0.3859
   -0.8736    1.3219    1.1409
    0.9535    2.9698    1.4212
   -4.5818    0.4381   -1.3554
   -3.9472    2.0232   -1.8484
   -4.1331   -1.5216   -1.1093
   -3.3765   -0.9665    0.3998
   -1.3861   -1.3401    1.5414
    0.1029   -2.2915    1.3518
   -0.5134   -1.3256   -0.0066
   -1.3255   -4.7082    1.6984
   -1.6456   -5.1489    0.0068
    0.2472   -3.7304   -1.4593
    2.3781   -2.2361   -1.8958
    4.8136   -2.3770   -2.3039
    6.0729   -4.4122   -1.6454
    4.8860   -6.3152   -0.5919
@<BUDE>CONF  11
   -0.1120    5.9907    4.0246
   -1.1549    4.9130    3.7427
   -2.5333    5.5568    3.6231
   -0.8147    4.2106    2.4502
   -0.5580    2.8349    2.4887
   -0.3378    2.1340    1.2970
   -0.3787    2.7971    0.0647
   -0.5826    4.1814    0.0200
   -0.7680    4.8807    1.2185
   -0.1648    1.8797   -1.4339
   -1.7862    1.3066   -2.0298
   -1.6036    0.5240   -3.3082
   -1.8348    1.0373   -4.3622
   -1.1790   -0.7566   -3.2603
   -1.0210   -1.4575   -4.4967
   -0.5419   -2.8625   -4.2201
   -1.2055   -3.8247   -4.6032
    0.5970   -3.0603   -3.5625
    1.3901   -1.9104   -3.1047
    1.0619   -4.4288   -3.2940
    1.5806   -4.5145   -1.8784
    2.6980   -4.9799   -1.6604
    0.8287   -4.0867   -0.8681
    1.3148   -4.1670    0.4584
    2.3513   -5.0542    0.7717
    2.8338   -5.1251    2.0840
    2.2791   -4.3200    3.0827
    1.2333   -3.4421    2.7733
    0.7552   -3.3644    1.4598
   -0.5471   -2.2776    1.0719
   -0.1161    6.7188    3.2163
   -0.3497    6.4879    4.9628
    0.8722    5.5322    4.0957
   -1.1605    4.1910    4.5565
   -3.2777    4.7861    3.4345
   -2.5304    6.2683    2.8000
   -2.7728    6.0743    4.5498
   -0.5421    2.2979    3.4255
   -0.1406    1.0724    1.2746
   -0.5929    4.6823   -0.9367
   -0.8881    5.9528    1.1682
   -2.2452    0.6688   -1.2772
   -2.4277    2.1647   -2.2191
   -0.2904   -0.9412   -5.1161
   -1.9757   -1.4964   -5.0170
    0.7981   -1.3149   -2.4128
    2.2871   -2.2663   -2.6024
    1.6708   -1.3004   -3.9608
    0.2343   -5.1237   -3.4203
    1.8594   -4.6832   -3.9891
   -0.0887   -3.7046   -1.0483
    2.7839   -5.6794    0.0045
    3.6388   -5.8049    2.3221
    2.6543   -4.3722    4.0940
    0.7992   -2.8239    3.5451
@<BUDE>CONF  12
    2.2866    6.4455   -0.2857
    1.3807    5.4434    0.4241
    0.2680    6.1904    1.1540
    0.7738    4.5068   -0.5928
    1.0459    3.1381   -0.4818
    0.4205    2.2314   -1.3460
   -0.4810    2.6821   -2.3175
   -0.7192    4.0531   -2.4705
   -0.0639    4.9559   -1.6248
   -1.3116    1.5128   -3.3547
   -2.8750    1.0105   -2.5700
   -2.5829    0.3618   -1.2381
   -2.7274    0.9811   -0.2264
   -2.1583   -0.9188   -1.1902
   -2.0003   -1.6197   -2.4266
   -1.5212   -3.0247   -2.1500
   -2.1848   -3.9869   -2.5331
   -0.3823   -3.2225   -1.4924
    0.4108   -2.0726   -1.0346
    0.0826   -4.5910   -1.2239
    0.6013   -4.6767    0.1917
    1.7187   -5.1421    0.4097
   -0.1506   -4.2489    1.2020
    0.3355   -4.3292    2.5285
   -0.5107   -4.7541    3.5596
   -0.0235   -4.8388    4.8693
    1.3010   -4.4932    5.1517
    2.1442   -4.0552    4.1235
    1.6606   -3.9775    2.8120
    2.7042   -3.4299    1.5319
    1.6992    7.0266   -0.9934
    2.7344    7.1120    0.4486
    3.0712    5.9110   -0.8172
    1.9645    4.8702    1.1411
   -0.3698    5.4757    1.6698
   -0.3236    6.7520    0.4341
    0.7058    6.8750    1.8775
    1.7217    2.7646    0.2733
    0.5942    1.1666   -1.2967
   -1.4030    4.3873   -3.2367
   -0.2317    6.0115   -1.7800
   -3.5022    1.8862   -2.4163
   -3.3925    0.3011   -3.2124
   -1.2697   -1.1034   -3.0460
   -2.9550   -1.6586   -2.9469
   -0.1812   -1.4771   -0.3427
    1.3078   -2.4285   -0.5323
    0.6915   -1.4626   -1.8907
   -0.7450   -5.2859   -1.3502
    0.8801   -4.8454   -1.9190
   -1.0680   -3.8668    1.0218
   -1.5353   -5.0223    3.3479
   -0.6758   -5.1741    5.6622
    1.6774   -4.5625    6.1615
    3.1660   -3.7815    4.3411
@<BUDE>CONF  13
   -6.0253    5.4615    2.8203
   -6.1180    4.4227    1.7063
   -6.6557    5.0812    0.4390
   -4.7459    3.8544    1.4338
   -4.5466    2.4810    1.6173
   -3.3166    1.9045    1.2789
   -2.2847    2.6901    0.7517
   -2.4567    4.0726    0.6138
   -3.6779    4.6467    0.9865
   -0.7614    1.9296    0.2676
   -0.8636    1.4273   -1.4788
    0.4359    0.7785   -1.8918
    1.2398    1.3978   -2.5227
    0.6896   -0.5020   -1.5479
   -0.3021   -1.2029   -0.7928
    0.1770   -2.6079   -0.5162
   -0.4866   -3.5701   -0.8993
    1.3159   -2.8057    0.1414
    2.1090   -1.6558    0.5992
    1.7808   -4.1742    0.4099
    3.2661   -4.2601    0.1513
    4.0135   -4.7254    1.0101
    3.7651   -3.8325   -1.0050
    5.1568   -3.9130   -1.2474
    5.8240   -2.8446   -1.8583
    7.2024   -2.9257   -2.0896
    7.9121   -4.0719   -1.7206
    7.2434   -5.1464   -1.1220
    5.8665   -5.0634   -0.8828
    5.0310   -6.3983   -0.1427
   -5.3653    6.2684    2.5088
   -7.0161    5.8613    3.0258
   -5.6286    4.9940    3.7191
   -6.7876    3.6214    2.0115
   -6.7331    4.3370   -0.3508
   -5.9779    5.8730    0.1270
   -7.6388    5.5024    0.6391
   -5.3346    1.8510    2.0028
   -3.1162    0.8499    1.3976
   -1.6452    4.6686    0.2233
   -3.7809    5.7188    0.9072
   -1.6787    0.7179   -1.6057
   -1.0441    2.3030   -2.0987
   -1.2300   -1.2418   -1.3596
   -0.4734   -0.6867    0.1495
    1.5170   -1.0603    1.2911
    3.0060   -2.0117    1.1015
    2.3897   -1.0458   -0.2569
    1.5776   -4.4284    1.4481
    1.2575   -4.8691   -0.2435
    3.1503   -3.4506   -1.7096
    5.2812   -1.9563   -2.1461
    7.7167   -2.0972   -2.5542
    8.9760   -4.1324   -1.8957
    7.7891   -6.0354   -0.8422
@<BUDE>CONF  14
   -8.0220    3.3926   -0.2123
   -6.7506    4.1740    0.1064
   -6.6373    4.3691    1.6156
   -5.5503    3.4057   -0.3924
   -4.7305    4.0052   -1.3558
   -3.5557    3.3643   -1.7668
   -3.1900    2.1299   -1.2169
   -4.0298    1.4982   -0.2920
   -5.2199    2.1298    0.0885
   -1.6668    1.3694   -1.7010
   -0.3353    1.9187   -0.5885
    0.9642    1.2699   -1.0015
    1.7681    1.8892   -1.6324
    1.2179   -0.0106   -0.6576
    0.2262   -0.7115    0.0975
    0.7053   -2.1165    0.3741
    0.0417   -3.0787   -0.0090
    1.8442   -2.3143    1.0317
    2.6373   -1.1644    1.4895
    2.3091   -3.6828    1.3002
    3.7944   -3.7687    1.0416
    4.5418   -4.2340    1.9004
    4.2934   -3.3411   -0.1147
    5.6851   -3.4216   -0.3571
    6.3523   -2.3532   -0.9680
    7.7307   -2.4343   -1.1993
    8.4404   -3.5805   -0.8303
    7.7717   -4.6550   -0.2317
    6.3948   -4.5720    0.0075
    5.5593   -5.9069    0.7476
   -7.9887    2.4272    0.2884
   -8.8878    3.9525    0.1352
   -8.0945    3.2419   -1.2874
   -6.7883    5.1446   -0.3837
   -5.7370    4.9371    1.8406
   -6.5855    3.3979    2.1033
   -7.5087    4.9112    1.9770
   -4.9810    4.9667   -1.7791
   -2.8888    3.7883   -2.5030
   -3.7439    0.5373    0.1097
   -5.8730    1.6123    0.7755
   -0.2349    3.0004   -0.6483
   -0.5743    1.6320    0.4335
   -0.7017   -0.7504   -0.4693
    0.0549   -0.1953    1.0398
    2.0453   -0.5689    2.1814
    3.5343   -1.5203    1.9918
    2.9180   -0.5544    0.6334
    2.1059   -3.9370    2.3384
    1.7858   -4.3777    0.6468
    3.6786   -2.9592   -0.8193
    5.8095   -1.4649   -1.2558
    8.2450   -1.6058   -1.6639
    9.5043   -3.6410   -1.0054
    8.3174   -5.5440    0.0481
@<BUDE>CONF  15
    1.3199    6.1129    1.2885
    0.4140    5.1108    1.9983
   -0.6987    5.8578    2.7282
   -0.1929    4.1742    0.9814
    0.0792    2.8055    1.0924
   -0.5462    1.8988    0.2282
   -1.4477    2.3495   -0.7433
   -1.6859    3.7205   -0.8963
   -1.0306    4.6233   -0.0506
   -2.2783    1.1802   -1.7805
   -3.8417    0.6779   -0.9958
   -3.5496    0.0292    0.3361
   -3.6941    0.6485    1.3478
   -3.1250   -1.2514    0.3840
   -2.9670   -1.9523   -0.8524
   -2.4879   -3.3573   -0.5758
   -3.1515   -4.3195   -0.9589
   -1.3490   -3.5551    0.0818
   -0.8840   -4.9235    0.3502
   -0.5558   -2.4052    0.5395
    0.9069   -2.6636    0.2679
    1.7317   -2.5356    1.1713
    1.3025   -3.0296   -0.9481
    2.6732   -3.2718   -1.2026
    3.2596   -2.8017   -2.3837
    4.6178   -3.0375   -2.6280
    5.3872   -3.7469   -1.7015
    4.7985   -4.2291   -0.5263
    3.4423   -3.9872   -0.2770
    2.7059   -4.5882    1.1804
    0.7325    6.6940    0.5808
    1.7677    6.7794    2.0228
    2.1045    5.5784    0.7570
    0.9978    4.5376    2.7153
   -1.3365    5.1431    3.2440
   -1.2903    6.4194    2.0083
   -0.2609    6.5424    3.4517
    0.7550    2.4320    1.8475
   -0.3725    0.8340    0.2775
   -2.3697    4.0547   -1.6625
   -1.1984    5.6789   -0.2058
   -4.4689    1.5536   -0.8421
   -4.3592   -0.0315   -1.6382
   -2.2364   -1.4360   -1.4718
   -3.9217   -1.9912   -1.3727
   -0.7261   -5.4437   -0.5923
    0.0508   -4.8858    0.9055
   -1.6334   -5.4522    0.9357
   -0.8722   -1.5116    0.0054
   -0.7075   -2.2630    1.6075
    0.6243   -3.1345   -1.6892
    2.6704   -2.2533   -3.1037
    5.0702   -2.6675   -3.5363
    6.4357   -3.9251   -1.8885
    5.3900   -4.7830    0.1876
@<BUDE>CONF  16
   -5.1474    5.1148    1.1904
   -5.2401    4.0760    0.0764
   -5.7778    4.7345   -1.1909
   -3.8680    3.5077   -0.1961
   -3.6687    2.1343   -0.0126
   -2.4387    1.5578   -0.3510
   -1.4068    2.3434   -0.8782
   -1.5788    3.7259   -1.0161
   -2.8000    4.3000   -0.6434
    0.1165    1.5829   -1.3623
    0.0143    1.0806   -3.1087
    1.3138    0.4318   -3.5217
    2.1177    1.0511   -4.1526
    1.5675   -0.8487   -3.1778
    0.5758   -1.5496   -2.4227
    1.0549   -2.9546   -2.1461
    0.3913   -3.9168   -2.5292
    2.1938   -3.1524   -1.4885
    2.6588   -4.5208   -1.2201
    2.9870   -2.0025   -1.0308
    3.4831   -2.2607    0.3718
    4.6779   -2.1328    0.6344
    2.6279   -2.6265    1.3225
    3.0928   -2.8685    2.6368
    2.3703   -2.3867    3.7348
    2.8303   -2.6347    5.0336
    4.0114   -3.3537    5.2370
    4.7419   -3.8244    4.1393
    4.2789   -3.5839    2.8402
    5.1860   -4.1637    1.4731
   -4.4874    5.9217    0.8789
   -6.1382    5.5146    1.3959
   -4.7507    4.6473    2.0892
   -5.9097    3.2747    0.3816
   -5.8552    3.9903   -1.9807
   -5.1000    5.5263   -1.5029
   -6.7609    5.1557   -0.9908
   -4.4567    1.5043    0.3729
   -2.2383    0.5032   -0.2323
   -0.7673    4.3219   -1.4066
   -2.9030    5.3721   -0.7227
   -0.8008    0.3712   -3.2356
   -0.1662    1.9563   -3.7286
   -0.3521   -1.5885   -2.9895
    0.4045   -1.0334   -1.4804
    2.8167   -5.0410   -2.1626
    3.5936   -4.4831   -0.6648
    1.9094   -5.0495   -0.6346
    3.8360   -1.8605   -1.6961
    2.3664   -1.1089   -1.0378
    1.6469   -2.7312    1.1057
    1.4570   -1.8301    3.5842
    2.2674   -2.2686    5.8796
    4.3638   -3.5481    6.2392
    5.6582   -4.3745    4.2946
@<BUDE>CONF  17
   -7.6776    2.2819    2.2905
   -6.4340    3.1644    2.2331
   -5.7399    3.1556    3.5921
   -5.4887    2.6327    1.1827
   -5.1589    3.4619    0.1041
   -4.2095    3.0396   -0.8341
   -3.5814    1.7957   -0.6989
   -3.9430    0.9380    0.3467
   -4.9179    1.3535    1.2613
   -2.3352    1.3105   -1.8584
   -0.7059    1.8598   -1.2616
   -0.4138    1.2111    0.0703
   -0.5583    1.8304    1.0820
    0.0108   -0.0695    0.1182
    0.1688   -0.7704   -1.1182
    0.6479   -2.1754   -0.8416
   -0.0157   -3.1376   -1.2247
    1.7868   -2.3732   -0.1840
    2.2518   -3.7416    0.0844
    2.5800   -1.2233    0.2737
    4.0427   -1.4817    0.0021
    4.8675   -1.3537    0.9055
    4.4383   -1.8477   -1.2139
    5.8090   -2.0899   -1.4684
    6.3954   -1.6198   -2.6495
    7.7536   -1.8556   -2.8938
    8.5230   -2.5650   -1.9673
    7.9343   -3.0472   -0.7921
    6.5781   -2.8053   -0.5428
    5.8417   -3.4063    0.9146
   -7.3895    1.2672    2.5570
   -8.3648    2.6727    3.0381
   -8.1638    2.2777    1.3171
   -6.7223    4.1822    1.9789
   -4.8605    3.7949    3.5535
   -5.4397    2.1393    3.8387
   -6.4256    3.5262    4.3512
   -5.6146    4.4344   -0.0098
   -3.9184    3.6449   -1.6799
   -3.4635   -0.0264    0.4274
   -5.2105    0.6652    2.0404
    0.0596    1.5731   -1.9796
   -0.7076    2.9415   -1.1447
    0.8994   -0.2541   -1.7376
   -0.7859   -0.8093   -1.6385
    2.4097   -4.2618   -0.8581
    3.1866   -3.7039    0.6397
    1.5024   -4.2703    0.6699
    2.2636   -0.3297   -0.2604
    2.4283   -1.0811    1.3417
    3.7601   -1.9526   -1.9550
    5.8062   -1.0714   -3.3695
    8.2060   -1.4856   -3.8021
    9.5715   -2.7432   -2.1543
    8.5258   -3.6011   -0.0782
@<BUDE>CONF  18
    1.6448    5.2331   -1.4103
    0.1194    5.2006   -1.3847
   -0.4018    4.6879   -2.7241
   -0.3451    4.2820   -0.2800
   -1.1285    4.8208    0.7474
   -1.6590    3.9797    1.7328
   -1.4175    2.6012    1.6956
   -0.5923    2.0607    0.7023
   -0.0378    2.9132   -0.2597
   -2.1535    1.5475    2.9126
   -3.7749    0.9744    2.3167
   -3.5923    0.1918    1.0383
   -3.8235    0.7051   -0.0157
   -3.1677   -1.0888    1.0862
   -3.0097   -1.7897   -0.1502
   -2.5306   -3.1947    0.1264
   -3.1942   -4.1569   -0.2567
   -1.3917   -3.3925    0.7840
   -0.9267   -4.7609    1.0524
   -0.5985   -2.2426    1.2417
    0.8642   -2.5010    0.9701
    1.6890   -2.3730    1.8735
    1.2598   -2.8670   -0.2459
    2.6305   -3.1092   -0.5004
    3.6057   -2.5714    0.3478
    4.9604   -2.8196    0.0962
    5.3420   -3.5947   -1.0024
    4.3682   -4.1217   -1.8590
    3.0128   -3.8810   -1.6041
    1.7995   -4.5308   -2.6686
    2.0251    4.2319   -1.6014
    1.9794    5.9054   -2.1976
    2.0156    5.5854   -0.4499
   -0.2624    6.2035   -1.2060
   -1.4897    4.6770   -2.7091
   -0.0307    3.6796   -2.8951
   -0.0560    5.3424   -3.5216
   -1.3458    5.8780    0.7854
   -2.2725    4.3469    2.5422
   -0.3997    0.9980    0.6973
    0.6249    2.4850   -0.9971
   -4.2339    0.3366    3.0693
   -4.4164    1.8325    2.1274
   -2.2791   -1.2734   -0.7696
   -3.9644   -1.8286   -0.6705
   -0.7688   -5.2811    0.1099
    0.0081   -4.7232    1.6077
   -1.6761   -5.2896    1.6379
   -0.9149   -1.3490    0.7076
   -0.7502   -2.1004    2.3097
    0.5816   -2.9719   -0.9870
    3.3172   -1.9713    1.1982
    5.7110   -2.4100    0.7562
    6.3870   -3.7891   -1.1938
    4.6617   -4.7155   -2.7121
@<BUDE>CONF  19
   -4.8483    2.1029   -5.5661
   -4.5534    1.1766   -4.3898
   -4.1895   -0.2103   -4.9122
   -3.3987    1.7313   -3.5906
   -3.6183    2.0654   -2.2491
   -2.5474    2.4877   -1.4523
   -1.2556    2.5726   -1.9851
   -1.0357    2.2911   -3.3386
   -2.1179    1.9024   -4.1372
    0.0951    3.0437   -0.9426
    0.8281    1.5565   -0.1920
   -0.2124    0.8511    0.6446
   -0.7692   -0.1158    0.2168
   -0.5137    1.3131    1.8768
   -1.5054    0.6122    2.6319
   -1.0263   -0.7928    2.9085
   -1.6899   -1.7550    2.5254
    0.1126   -0.9906    3.5661
    0.9057    0.1593    4.0239
    0.5775   -2.3591    3.8346
    2.0628   -2.4450    3.5760
    2.8102   -2.9103    4.4348
    2.5618   -2.0174    2.4197
    3.9535   -2.0979    2.1773
    4.8459   -2.2073    3.2504
    6.2216   -2.2939    3.0055
    6.7068   -2.2631    1.6951
    5.8163   -2.1400    0.6219
    4.4398   -2.0614    0.8649
    3.3299   -1.9043   -0.4659
   -3.9720    2.1629   -6.2082
   -5.6889    1.7102   -6.1343
   -5.0938    3.0950   -5.1929
   -5.4331    1.1059   -3.7536
   -3.9917   -0.8730   -4.0724
   -3.3014   -0.1403   -5.5369
   -5.0165   -0.6045   -5.4992
   -4.6020    1.9879   -1.8102
   -2.6654    2.7517   -0.4117
   -0.0370    2.3791   -3.7402
   -1.9370    1.7238   -5.1868
    1.1763    0.8876   -0.9764
    1.6664    1.8437    0.4392
   -2.4333    0.5733    2.0651
   -1.6767    1.1284    3.5742
    0.3137    0.7548    4.7158
    1.8027   -0.1966    4.5262
    1.1864    0.7693    3.1678
    0.3743   -2.6133    4.8728
    0.0542   -3.0540    3.1812
    1.9470   -1.6355    1.7151
    4.4772   -2.2313    4.2653
    6.9079   -2.3859    3.8344
    7.7678   -2.3339    1.5065
    6.1901   -2.1096   -0.3909
@<BUDE>CONF  20
   -1.5025   -2.7497   -2.7926
   -0.2716   -2.0039   -2.2852
    0.9242   -2.3291   -3.1756
   -0.5348   -0.5175   -2.3205
   -1.8524   -0.0716   -2.1628
   -2.1191    1.3008   -2.0905
   -1.0770    2.2323   -2.1683
    0.2371    1.7979   -2.3787
    0.4913    0.4253   -2.4841
   -1.4289    3.9595   -2.0069
   -1.3220    4.4380   -0.2542
   -2.3379    3.6554    0.5431
   -3.3662    4.1688    0.8700
   -2.0842    2.3749    0.8870
   -3.0759    1.6740    1.6421
   -2.5968    0.2690    1.9187
   -3.2604   -0.6932    1.5356
   -1.4579    0.0712    2.5763
   -0.6648    1.2211    3.0341
   -0.9930   -1.2973    2.8448
    0.4923   -1.3832    2.5862
    1.2397   -1.8485    3.4450
    0.9913   -0.9556    1.4299
    2.3830   -1.0361    1.1875
    3.0502    0.0323    0.5766
    4.4286   -0.0488    0.3453
    5.1383   -1.1950    0.7143
    4.4696   -2.2695    1.3129
    3.0927   -2.1865    1.5521
    2.2572   -3.5214    2.2922
   -1.7082   -2.4526   -3.8188
   -1.3177   -3.8212   -2.7546
   -2.3575   -2.5060   -2.1654
   -0.0574   -2.3094   -1.2632
    1.8038   -1.8067   -2.8055
    0.7142   -2.0104   -4.1945
    1.1056   -3.4018   -3.1607
   -2.6705   -0.7717   -2.0794
   -3.1173    1.6934   -1.9646
    1.0283    2.5290   -2.4555
    1.5049    0.1096   -2.6820
   -0.3237    4.2228    0.1210
   -1.5259    5.5022   -0.1550
   -4.0038    1.6351    1.0753
   -3.2472    2.1902    2.5844
   -1.2568    1.8166    3.7260
    0.2322    0.8652    3.5364
   -0.3841    1.8311    2.1780
   -1.1962   -1.5515    3.8830
   -1.5163   -1.9922    2.1914
    0.3765   -0.5737    0.7253
    2.5074    0.9206    0.2888
    4.9429    0.7797   -0.1193
    6.2022   -1.2555    0.5392
    5.0153   -3.1585    1.5927
@<BUDE>CONF  21
   -1.0920    5.6620    5.6231
   -2.1349    4.5843    5.3412
   -3.5133    5.2281    5.2216
   -1.7947    3.8819    4.0487
   -1.5380    2.5062    4.0872
   -1.3178    1.8053    2.8955
   -1.3587    2.4684    1.6632
   -1.5626    3.8527    1.6185
   -1.7480    4.5520    2.8170
   -1.1448    1.5510    0.1646
   -2.7662    0.9779   -0.4313
   -2.5836    0.1953   -1.7097
   -2.8148    0.7086   -2.7637
   -2.1590   -1.0853   -1.6618
   -2.0010   -1.7862   -2.8982
   -1.5219   -3.1912   -2.6216
   -2.1855   -4.1534   -3.0047
   -0.3830   -3.3890   -1.9640
    0.0820   -4.7574   -1.6956
    0.4102   -2.2391   -1.5063
    1.8729   -2.4975   -1.7779
    2.6977   -2.3695   -0.8745
    2.2685   -2.8635   -2.9939
    3.6392   -3.1057   -3.2484
    4.6144   -2.5679   -2.4002
    5.9691   -2.8161   -2.6518
    6.3507   -3.5912   -3.7504
    5.3769   -4.1182   -4.6070
    4.0215   -3.8775   -4.3521
    2.8082   -4.5273   -5.4166
   -1.0961    6.3901    4.8148
   -1.3297    6.1592    6.5613
   -0.1078    5.2035    5.6942
   -2.1405    3.8623    6.1550
   -4.2577    4.4574    5.0330
   -3.5104    5.9396    4.3985
   -3.7528    5.7456    6.1483
   -1.5221    1.9692    5.0240
   -1.1206    0.7437    2.8731
   -1.5729    4.3536    0.6618
   -1.8681    5.6241    2.7667
   -3.2252    0.3401    0.3213
   -3.4077    1.8360   -0.6206
   -1.2704   -1.2699   -3.5176
   -2.9557   -1.8251   -3.4185
    0.2399   -5.2776   -2.6381
    1.0168   -4.7197   -1.1403
   -0.6674   -5.2861   -1.1101
    0.0938   -1.3455   -2.0404
    0.2585   -2.0969   -0.4383
    1.5903   -2.9684   -3.7350
    4.3259   -1.9678   -1.5498
    6.7197   -2.4065   -1.9918
    7.3957   -3.7856   -3.9418
    5.6704   -4.7120   -5.4601
@<BUDE>CONF  22
   -0.2552    5.9877    1.5622
   -1.1891    4.9222    0.9955
   -2.3877    5.5955    0.3331
   -0.4473    4.0969   -0.0283
   -0.3074    2.7229    0.2001
    0.2864    1.9119   -0.7744
    0.7362    2.4633   -1.9800
    0.6483    3.8437   -2.1954
    0.0843    4.6527   -1.2018
    1.4222    1.4095   -3.2258
    0.0954    0.8364   -4.3320
   -0.9205    0.0538   -3.5347
   -1.9488    0.5672   -3.2078
   -0.6668   -1.2267   -3.1908
   -1.6585   -1.9276   -2.4357
   -1.1794   -3.3326   -2.1591
   -1.8430   -4.2948   -2.5422
   -0.0405   -3.5304   -1.5015
    0.4245   -4.8988   -1.2331
    0.7527   -2.3805   -1.0438
    1.2488   -2.6387    0.3588
    2.4436   -2.5108    0.6214
    0.3936   -3.0045    1.3095
    0.8585   -3.2465    2.6238
    2.2117   -3.5271    2.8472
    2.6686   -3.7588    4.1501
    1.7776   -3.7191    5.2262
    0.4216   -3.4520    5.0024
   -0.0352   -3.2122    3.7010
   -1.7203   -2.8838    3.4181
    0.0791    6.6405    0.7587
   -0.7858    6.5738    2.3096
    0.6059    5.5069    2.0218
   -1.5340    4.2763    1.8001
   -3.0590    4.8346   -0.0595
   -2.0425    6.2302   -0.4803
   -2.9146    6.2008    1.0678
   -0.6655    2.2714    1.1135
    0.4124    0.8469   -0.6467
    1.0167    4.2573   -3.1225
    0.0569    5.7193   -1.3693
   -0.3894    1.6945   -4.7930
    0.5176    0.1985   -5.1057
   -2.5864   -1.9665   -3.0025
   -1.8298   -1.4114   -1.4934
    0.5824   -5.4190   -2.1756
    1.3593   -4.8611   -0.6778
   -0.3249   -5.4275   -0.6476
    1.6017   -2.2385   -1.7091
    0.1321   -1.4869   -1.0508
   -0.5874   -3.1092    1.0927
    2.9052   -3.5595    2.0198
    3.7144   -3.9677    4.3212
    2.1312   -3.8941    6.2315
   -0.2693   -3.4273    5.8321
@<BUDE>CONF  23
   -2.1272   -2.1844    2.5305
   -2.0670   -1.9779    1.0197
   -3.1616   -2.8027    0.3487
   -2.2744   -0.5161    0.7038
   -1.8691    0.4327    1.6499
   -1.9545    1.7971    1.3486
   -2.4365    2.2213    0.1045
   -2.8931    1.2819   -0.8276
   -2.8362   -0.0793   -0.5054
   -2.4726    3.9484   -0.2810
   -0.9014    4.4269   -1.0649
   -0.7188    3.6443   -2.3433
   -0.9500    4.1576   -3.3973
   -0.2942    2.3637   -2.2954
   -0.1362    1.6628   -3.5318
    0.3429    0.2578   -3.2552
   -0.3207   -0.7044   -3.6383
    1.4818    0.0600   -2.5976
    2.2749    1.2099   -2.1398
    1.9467   -1.3085   -2.3291
    2.4654   -1.3942   -0.9135
    3.5828   -1.8596   -0.6955
    1.7135   -0.9664    0.0968
    2.1996   -1.0467    1.4233
    2.0160    0.0272    2.3023
    2.4923   -0.0595    3.6160
    3.1567   -1.2101    4.0496
    3.3528   -2.2793    3.1673
    2.8701   -2.1971    1.8557
    3.1152   -3.5221    0.7549
   -3.1045   -1.8796    2.8988
   -1.9645   -3.2356    2.7590
   -1.3554   -1.5850    3.0089
   -1.0945   -2.2941    0.6483
   -3.1097   -2.6644   -0.7292
   -4.1343   -2.4760    0.7105
   -3.0198   -3.8548    0.5873
   -1.4744    0.1292    2.6083
   -1.6501    2.5663    2.0430
   -3.2799    1.6248   -1.7758
   -3.2255   -0.7880   -1.2213
   -0.9174    5.4910   -1.2910
   -0.0773    4.2117   -0.3879
    0.5944    2.1791   -4.1512
   -1.0909    1.6239   -4.0521
    1.6829    1.8054   -1.4479
    3.1719    0.8540   -1.6375
    2.5556    1.8199   -2.9959
    1.1191   -2.0034   -2.4554
    2.7442   -1.5629   -3.0242
    0.7961   -0.5843   -0.0834
    1.5036    0.9192    1.9732
    2.3430    0.7672    4.2949
    3.5205   -1.2781    5.0641
    3.8718   -3.1665    3.4988
@<BUDE>CONF  24
   -1.5493    6.1076   -1.1028
   -1.2440    4.6218   -1.2698
    0.2434    4.3774   -1.0320
   -2.0498    3.8279   -0.2697
   -2.9642    2.8840   -0.7520
   -3.6545    2.0612    0.1460
   -3.4330    2.1702    1.5240
   -2.5600    3.1465    2.0185
   -1.8992    3.9883    1.1159
   -4.2658    1.0744    2.6369
   -3.2493   -0.4128    2.8964
   -3.0450   -1.1182    1.5770
   -3.6940   -2.0851    1.3087
   -2.1286   -0.6563    0.7000
   -1.9706   -1.3572   -0.5364
   -1.4915   -2.7622   -0.2598
   -2.1551   -3.7244   -0.6429
   -0.3526   -2.9600    0.3978
    0.1124   -4.3284    0.6662
    0.4406   -1.8101    0.8555
    1.9033   -2.0685    0.5839
    2.7281   -1.9405    1.4873
    2.2989   -2.4345   -0.6321
    3.6696   -2.6767   -0.8866
    4.6448   -2.1389   -0.0384
    5.9995   -2.3871   -0.2900
    6.3811   -3.1622   -1.3886
    5.4073   -3.6892   -2.2452
    4.0519   -3.4485   -1.9903
    2.8386   -4.0983   -3.0548
   -1.2740    6.4232   -0.0987
   -0.9787    6.6787   -1.8323
   -2.6125    6.2785   -1.2587
   -1.5072    4.3079   -2.2776
    0.4620    3.3198   -1.1636
    0.5024    4.6787   -0.0191
    0.8244    4.9599   -1.7440
   -3.1365    2.7671   -1.8117
   -4.3658    1.3156   -0.1773
   -2.4133    3.2313    3.0851
   -1.2571    4.7590    1.5161
   -2.2834   -0.1257    3.3068
   -3.7545   -1.0817    3.5901
   -1.2400   -0.8409   -1.1558
   -2.9253   -1.3961   -1.0567
    0.2703   -4.8486   -0.2763
    1.0472   -4.2907    1.2215
   -0.6370   -4.8571    1.2517
    0.1242   -0.9165    0.3214
    0.2889   -1.6679    1.9235
    1.6207   -2.5394   -1.3732
    4.3563   -1.5388    0.8120
    6.7501   -1.9775    0.3700
    7.4261   -3.3566   -1.5800
    5.7008   -4.2830   -3.0983
@<BUDE>CONF  25
    2.5119    6.5628   -2.4627
    2.4852    5.1079   -2.9223
    3.8996    4.5362   -2.8865
    1.5960    4.3065   -2.0021
    0.5281    4.9591   -1.3748
   -0.3745    4.2262   -0.5950
   -0.2215    2.8431   -0.4421
    0.8727    2.1906   -1.0223
    1.7899    2.9361   -1.7724
   -1.4123    1.9257    0.4925
   -2.7391    1.3526   -0.6137
   -3.7550    0.5700    0.1836
   -4.7833    1.0834    0.5105
   -3.5013   -0.7105    0.5275
   -4.4930   -1.4114    1.2826
   -4.0139   -2.8164    1.5592
   -4.6775   -3.7786    1.1761
   -2.8750   -3.0142    2.2168
   -2.0819   -1.8643    2.6746
   -2.4101   -4.3827    2.4853
   -0.9248   -4.4686    2.2267
   -0.1774   -4.9339    3.0855
   -0.4258   -4.0410    1.0704
    0.9659   -4.1215    0.8280
    1.6331   -3.0531    0.2171
    3.0115   -3.1342   -0.0142
    3.7212   -4.2804    0.3548
    3.0525   -5.3549    0.9534
    1.6756   -5.2719    1.1926
    0.8401   -6.6068    1.9327
    2.9116    6.6159   -1.4522
    3.1421    7.1429   -3.1336
    1.5011    6.9650   -2.4752
    2.0974    5.0547   -3.9374
    3.8811    3.5028   -3.2263
    4.2810    4.5771   -1.8683
    4.5435    5.1219   -3.5394
    0.3774    6.0217   -1.4950
   -1.2160    4.6832   -0.0954
    0.9881    1.1262   -0.8801
    2.6472    2.4233   -2.1828
   -3.2239    2.2107   -1.0747
   -2.3169    0.7147   -1.3874
   -5.4209   -1.4503    0.7158
   -4.6643   -0.8952    2.2249
   -2.6739   -1.2688    3.3665
   -1.1849   -2.2202    3.1769
   -1.8012   -1.2543    1.8185
   -2.6133   -4.6369    3.5235
   -2.9334   -5.0776    1.8319
   -1.0406   -3.6591    0.3658
    1.0903   -2.1648   -0.0707
    3.5258   -2.3057   -0.4788
    4.7851   -4.3409    0.1797
    3.5982   -6.2439    1.2332
@<BUDE>CONF  26
    2.3033    6.4418   -0.2920
    1.3974    5.4397    0.4178
    0.2847    6.1867    1.1477
    0.7905    4.5031   -0.5991
    1.0626    3.1344   -0.4881
    0.4372    2.2277   -1.3523
   -0.4643    2.6784   -2.3238
   -0.7025    4.0494   -2.4768
   -0.0472    4.9522   -1.6311
   -1.2949    1.5091   -3.3610
   -2.8583    1.0068   -2.5763
   -2.5662    0.3581   -1.2444
   -2.7107    0.9774   -0.2327
   -2.1416   -0.9225   -1.1965
   -1.9836   -1.6234   -2.4329
   -1.5045   -3.0284   -2.1563
   -2.1681   -3.9906   -2.5394
   -0.3656   -3.2262   -1.4987
    0.4275   -2.0763   -1.0409
    0.0993   -4.5947   -1.2302
    0.6180   -4.6804    0.1854
    1.7354   -5.1458    0.4034
   -0.1339   -4.2526    1.1957
    0.3522   -4.3329    2.5222
    1.3887   -5.2201    2.8355
    1.8712   -5.2910    4.1478
    1.3165   -4.4859    5.1465
    0.2707   -3.6080    4.8371
   -0.2074   -3.5303    3.5236
   -1.5097   -2.4435    3.1357
    1.7159    7.0229   -0.9997
    2.7511    7.1083    0.4423
    3.0879    5.9073   -0.8235
    1.9812    4.8665    1.1348
   -0.3531    5.4720    1.6635
   -0.3069    6.7483    0.4278
    0.7225    6.8713    1.8712
    1.7384    2.7609    0.2670
    0.6109    1.1629   -1.3030
   -1.3863    4.3836   -3.2430
   -0.2150    6.0078   -1.7863
   -3.4855    1.8825   -2.4226
   -3.3758    0.2974   -3.2187
   -1.2530   -1.1071   -3.0523
   -2.9383   -1.6623   -2.9532
   -0.1645   -1.4808   -0.3490
    1.3245   -2.4322   -0.5386
    0.7082   -1.4663   -1.8970
   -0.7283   -5.2896   -1.3565
    0.8968   -4.8491   -1.9253
   -1.0513   -3.8705    1.0155
    1.8213   -5.8453    2.0683
    2.6762   -5.9708    4.3859
    1.6917   -4.5381    6.1578
   -0.1634   -2.9898    5.6089
@<BUDE>CONF  27
    1.5127    5.7306    2.3138
    0.8430    5.7022    0.9429
    1.8733    5.3312   -0.1199
   -0.2660    4.6776    0.9467
   -1.5734    5.1120    0.6983
   -2.6102    4.1769    0.5956
   -2.3491    2.8084    0.7331
   -1.0545    2.3687    1.0337
   -0.0295    3.3126    1.1686
   -3.6626    1.6391    0.5325
   -3.7648    1.1368   -1.2139
   -2.4653    0.4880   -1.6269
   -1.6614    1.1073   -2.2578
   -2.2116   -0.7925   -1.2830
   -3.2033   -1.4934   -0.5279
   -2.7242   -2.8984   -0.2513
   -3.3878   -3.8606   -0.6344
   -1.5853   -3.0962    0.4063
   -0.7922   -1.9463    0.8641
   -1.1204   -4.4647    0.6748
    0.3649   -4.5506    0.4162
    1.1123   -5.0159    1.2750
    0.8639   -4.1230   -0.7401
    2.2556   -4.2035   -0.9825
    3.1480   -4.3129    0.0906
    4.5237   -4.3995   -0.1543
    5.0089   -4.3687   -1.4647
    4.1184   -4.2456   -2.5379
    2.7419   -4.1670   -2.2949
    1.6320   -4.0099   -3.6257
    1.9375    4.7525    2.5296
    2.3032    6.4783    2.3151
    0.7742    5.9814    3.0724
    0.4287    6.6833    0.7205
    1.3974    5.3234   -1.0983
    2.2766    4.3440    0.0959
    2.6792    6.0622   -0.1136
   -1.7960    6.1607    0.5679
   -3.6335    4.4622    0.4005
   -0.8717    1.3112    1.1555
    0.9554    2.9591    1.4358
   -4.5799    0.4274   -1.3408
   -3.9453    2.0125   -1.8338
   -4.1312   -1.5323   -1.0947
   -3.3746   -0.9772    0.4144
   -1.3842   -1.3508    1.5560
    0.1048   -2.3022    1.3664
   -0.5115   -1.3363    0.0080
   -1.3236   -4.7189    1.7130
   -1.6437   -5.1596    0.0214
    0.2491   -3.7411   -1.4447
    2.7793   -4.3369    1.1055
    5.2100   -4.4915    0.6746
    6.0699   -4.4395   -1.6533
    4.4922   -4.2152   -3.5507
@<BUDE>CONF  28
   -4.5982    4.1137   -6.3956
   -3.1248    3.8933   -6.0651
   -2.4060    5.2386   -6.0199
   -3.0074    3.2155   -4.7210
   -2.3916    1.9597   -4.6612
   -2.1765    1.3480   -3.4204
   -2.5669    1.9855   -2.2367
   -3.2304    3.2171   -2.2898
   -3.4722    3.8063   -3.5364
   -2.2245    1.2251   -0.6755
   -0.5952    1.7744   -0.0787
   -0.3031    1.1257    1.2532
   -0.4476    1.7450    2.2649
    0.1215   -0.1549    1.3011
    0.2795   -0.8558    0.0647
    0.7586   -2.2608    0.3413
    0.0950   -3.2230   -0.0418
    1.8975   -2.4586    0.9989
    2.6906   -1.3087    1.4567
    2.3624   -3.8271    1.2674
    2.8811   -3.9128    2.6830
    3.9985   -4.3782    2.9010
    2.1292   -3.4850    3.6933
    2.6153   -3.5653    5.0198
    3.6518   -4.4525    5.3331
    4.1343   -4.5234    6.6454
    3.5796   -3.7183    7.6441
    2.5338   -2.8404    7.3347
    2.0557   -2.7627    6.0212
    0.7534   -1.6759    5.6333
   -5.0474    4.7528   -5.6383
   -4.6833    4.5900   -7.3701
   -5.1125    3.1550   -6.4137
   -2.6714    3.2645   -6.8284
   -1.3532    5.0792   -5.7965
   -2.8513    5.8611   -5.2466
   -2.5020    5.7329   -6.9844
   -2.0630    1.4578   -5.5592
   -1.7018    0.3829   -3.3222
   -3.5424    3.6882   -1.3694
   -4.0167    4.7387   -3.5611
    0.1703    1.4877   -0.7967
   -0.5969    2.8561    0.0382
    1.0101   -0.3395   -0.5547
   -0.6752   -0.8947   -0.4556
    2.0986   -0.7132    2.1486
    3.5876   -1.6646    1.9590
    2.9713   -0.6987    0.6006
    1.5348   -4.5220    1.1411
    3.1599   -4.0815    0.5723
    1.2118   -3.1029    3.5131
    4.0844   -5.0777    4.5659
    4.9393   -5.2032    6.8835
    3.9548   -3.7705    8.6554
    2.0997   -2.2222    8.1065
@<BUDE>CONF  29
   -5.1289    5.1085    1.1827
   -5.2216    4.0697    0.0687
   -5.7593    4.7282   -1.1986
   -3.8495    3.5014   -0.2038
   -3.6502    2.1280   -0.0203
   -2.4202    1.5515   -0.3587
   -1.3883    2.3371   -0.8859
   -1.5603    3.7196   -1.0238
   -2.7815    4.2937   -0.6511
    0.1350    1.5766   -1.3700
    0.0328    1.0743   -3.1164
    1.3323    0.4255   -3.5294
    2.1362    1.0448   -4.1603
    1.5860   -0.8550   -3.1855
    0.5943   -1.5559   -2.4304
    1.0734   -2.9609   -2.1538
    0.4098   -3.9231   -2.5369
    2.2123   -3.1587   -1.4962
    2.6773   -4.5271   -1.2278
    3.0055   -2.0088   -1.0385
    3.5016   -2.2670    0.3641
    4.6964   -2.1391    0.6267
    2.6464   -2.6328    1.3148
    3.1113   -2.8748    2.6291
    4.4645   -3.1554    2.8525
    4.9214   -3.3871    4.1554
    4.0304   -3.3474    5.2315
    2.6744   -3.0803    5.0077
    2.2176   -2.8405    3.7063
    0.5325   -2.5121    3.4234
   -4.4689    5.9154    0.8712
   -6.1197    5.5083    1.3882
   -4.7322    4.6410    2.0815
   -5.8912    3.2684    0.3739
   -5.8367    3.9840   -1.9884
   -5.0815    5.5200   -1.5106
   -6.7424    5.1494   -0.9985
   -4.4382    1.4980    0.3652
   -2.2198    0.4969   -0.2400
   -0.7488    4.3156   -1.4143
   -2.8845    5.3658   -0.7304
   -0.7823    0.3649   -3.2433
   -0.1477    1.9500   -3.7363
   -0.3336   -1.5948   -2.9972
    0.4230   -1.0397   -1.4881
    2.8352   -5.0473   -2.1703
    3.6121   -4.4894   -0.6725
    1.9279   -5.0558   -0.6423
    3.8545   -1.8668   -1.7038
    2.3849   -1.1152   -1.0455
    1.6654   -2.7375    1.0980
    5.1580   -3.1878    2.0251
    5.9672   -3.5960    4.3265
    4.3840   -3.5224    6.2368
    1.9835   -3.0556    5.8374
@<BUDE>CONF  30
    0.2283    6.5147   -0.9564
    0.0804    5.0977   -1.5030
    1.4265    4.6132   -2.0339
   -0.3841    4.1791   -0.3983
   -1.1675    4.7179    0.6291
   -1.6980    3.8768    1.6145
   -1.4565    2.4983    1.5773
   -0.6313    1.9578    0.5840
   -0.0768    2.8103   -0.3780
   -2.1925    1.4446    2.7943
   -3.8139    0.8715    2.1984
   -3.6313    0.0889    0.9200
   -3.8625    0.6022   -0.1340
   -3.2067   -1.1917    0.9679
   -3.0487   -1.8926   -0.2685
   -2.5696   -3.2976    0.0081
   -3.2332   -4.2598   -0.3750
   -1.4307   -3.4954    0.6657
   -0.9657   -4.8638    0.9341
   -0.6375   -2.3455    1.1234
    0.8252   -2.6039    0.8518
    1.6500   -2.4759    1.7552
    1.2208   -2.9699   -0.3642
    2.5915   -3.2121   -0.6187
    3.1779   -2.7420   -1.7998
    4.5361   -2.9778   -2.0441
    5.3055   -3.6872   -1.1176
    4.7168   -4.1694    0.0576
    3.3606   -3.9275    0.3069
    2.6242   -4.5285    1.7643
    0.9688    6.5198   -0.1593
    0.5502    7.1792   -1.7556
   -0.7288    6.8537   -0.5655
   -0.6507    5.0935   -2.3086
    1.3170    3.6077   -2.4346
    2.1531    4.6045   -1.2241
    1.7676    5.2828   -2.8208
   -1.3848    5.7751    0.6671
   -2.3115    4.2440    2.4239
   -0.4387    0.8951    0.5790
    0.5859    2.3821   -1.1154
   -4.2729    0.2337    2.9510
   -4.4554    1.7296    2.0091
   -2.3181   -1.3763   -0.8879
   -4.0034   -1.9315   -0.7888
   -0.8078   -5.3840   -0.0084
   -0.0309   -4.8261    1.4894
   -1.7151   -5.3925    1.5196
   -0.9539   -1.4519    0.5893
   -0.7892   -2.2033    2.1914
    0.5426   -3.0748   -1.1053
    2.5887   -2.1936   -2.5198
    4.9885   -2.6078   -2.9524
    6.3540   -3.8654   -1.3046
    5.3083   -4.7233    0.7715
@<BUDE>CONF  31
   -2.2953    3.1062   -7.6642
   -1.1016    2.8611   -6.7456
   -0.2912    4.1469   -6.6092
   -1.5948    2.4314   -5.3848
   -1.2130    1.1724   -4.9063
   -1.5689    0.7830   -3.6095
   -2.2990    1.6461   -2.7836
   -2.7301    2.8853   -3.2716
   -2.3993    3.2532   -4.5812
   -2.6800    1.1609   -1.1246
   -1.3485    1.7102   -0.0121
   -0.0490    1.0614   -0.4251
    0.7549    1.6807   -1.0560
    0.2047   -0.2191   -0.0812
   -0.7870   -0.9200    0.6739
   -0.3079   -2.3250    0.9505
   -0.9715   -3.2872    0.5674
    0.8310   -2.5228    1.6081
    1.2960   -3.8912    1.8765
    1.6242   -1.3729    2.0658
    2.1203   -1.6311    3.4684
    3.3151   -1.5032    3.7310
    1.2651   -1.9969    4.4191
    1.7300   -2.2389    5.7334
    3.0832   -2.5195    5.9568
    3.5401   -2.7512    7.2597
    2.6491   -2.7115    8.3358
    1.2931   -2.4444    8.1120
    0.8363   -2.2046    6.8106
   -0.8488   -1.8762    6.5277
   -2.9157    3.8973   -7.2483
   -1.9395    3.4030   -8.6487
   -2.8801    2.1927   -7.7494
   -0.4737    2.0788   -7.1667
    0.5664    3.9676   -5.9641
   -0.9162    4.9244   -6.1750
    0.0530    4.4639   -7.5915
   -0.6316    0.4978   -5.5172
   -1.2940   -0.1752   -3.1939
   -3.3087    3.5327   -2.6294
   -2.7703    4.1967   -4.9534
   -1.2481    2.7919   -0.0719
   -1.5875    1.4235    1.0099
   -1.7149   -0.9589    0.1071
   -0.9583   -0.4038    1.6162
    1.4539   -4.4114    0.9340
    2.2308   -3.8535    2.4318
    0.5466   -4.4199    2.4620
    2.4732   -1.2309    1.4005
    1.0036   -0.4793    2.0588
    0.2841   -2.1016    4.2023
    3.7767   -2.5519    5.1294
    4.5859   -2.9601    7.4308
    3.0027   -2.8865    9.3411
    0.6022   -2.4197    8.9417
@<BUDE>CONF  32
    2.4072    5.3883    0.6616
    1.7375    5.3599   -0.7093
    2.7678    4.9889   -1.7721
    0.6285    4.3353   -0.7055
   -0.6789    4.7697   -0.9539
   -1.7157    3.8346   -1.0566
   -1.4546    2.4661   -0.9191
   -0.1600    2.0264   -0.6185
    0.8650    2.9703   -0.4836
   -2.7681    1.2968   -1.1197
   -2.8703    0.7945   -2.8661
   -1.5708    0.1457   -3.2791
   -0.7669    0.7650   -3.9100
   -1.3171   -1.1348   -2.9352
   -2.3088   -1.8357   -2.1801
   -1.8297   -3.2407   -1.9035
   -2.4933   -4.2029   -2.2866
   -0.6908   -3.4385   -1.2459
   -0.2258   -4.8069   -0.9775
    0.1024   -2.2886   -0.7882
    0.5985   -2.5468    0.6144
    1.7933   -2.4189    0.8770
   -0.2567   -2.9126    1.5651
    0.2082   -3.1546    2.8794
    1.5614   -3.4352    3.1028
    2.0183   -3.6669    4.4057
    1.1273   -3.6272    5.4818
   -0.2287   -3.3601    5.2580
   -0.6855   -3.1203    3.9566
   -2.3706   -2.7919    3.6737
    2.8320    4.4102    0.8774
    3.1977    6.1360    0.6629
    1.6687    5.6391    1.4202
    1.3232    6.3410   -0.9317
    2.2919    4.9811   -2.7505
    3.1711    4.0017   -1.5563
    3.5737    5.7199   -1.7658
   -0.9015    5.8184   -1.0843
   -2.7390    4.1199   -1.2517
    0.0228    0.9689   -0.4967
    1.8499    2.6168   -0.2164
   -3.6854    0.0851   -2.9930
   -3.0508    1.6702   -3.4860
   -3.2367   -1.8746   -2.7469
   -2.4801   -1.3195   -1.2378
   -0.0679   -5.3271   -1.9200
    0.7090   -4.7692   -0.4222
   -0.9752   -5.3356   -0.3920
    0.9514   -2.1466   -1.4535
   -0.5182   -1.3950   -0.7952
   -1.2377   -3.0173    1.3483
    2.2549   -3.4676    2.2754
    3.0641   -3.8758    4.5768
    1.4809   -3.8022    6.4871
   -0.9196   -3.3354    6.0877
@<BUDE>CONF  33
   -1.4801    4.2598   -5.4647
   -2.5715    4.3815   -4.4050
   -3.8457    3.7077   -4.9062
   -2.1142    3.7085   -3.1332
   -2.0043    4.4840   -1.9730
   -1.6800    3.8737   -0.7555
   -1.4706    2.4911   -0.6873
   -1.5267    1.7155   -1.8513
   -1.8180    2.3385   -3.0706
   -1.1282    1.7307    0.8740
   -2.6916    1.2284    1.6587
   -2.3995    0.5797    2.9906
   -2.5440    1.1990    4.0023
   -1.9749   -0.7009    3.0385
   -1.8169   -1.4018    1.8021
   -1.3378   -2.8068    2.0787
   -2.0014   -3.7690    1.6956
   -0.1989   -3.0046    2.7363
    0.2661   -4.3730    3.0047
    0.5943   -1.8547    3.1940
    2.0570   -2.1131    2.9224
    2.8818   -1.9851    3.8258
    2.4526   -2.4791    1.7064
    3.8233   -2.7213    1.4519
    4.7985   -2.1835    2.3001
    6.1532   -2.4317    2.0485
    6.5348   -3.2068    0.9499
    5.5610   -3.7338    0.0933
    4.2056   -3.4931    0.3482
    2.9923   -4.1429   -0.7163
   -1.2913    3.2084   -5.6707
   -1.8043    4.7564   -6.3769
   -0.5681    4.7282   -5.1005
   -2.7701    5.4327   -4.2071
   -4.6266    3.8060   -4.1552
   -3.6493    2.6535   -5.0904
   -4.1678    4.1841   -5.8299
   -2.1817    5.5491   -1.9967
   -1.5883    4.4281    0.1668
   -1.3444    0.6530   -1.7863
   -1.8220    1.7313   -3.9637
   -3.3188    2.1041    1.8124
   -3.2091    0.5190    1.0163
   -1.0863   -0.8855    1.1827
   -2.7716   -1.4407    1.2818
    0.4240   -4.8932    2.0622
    1.2009   -4.3353    3.5600
   -0.4833   -4.9017    3.5902
    0.2779   -0.9611    2.6599
    0.4426   -1.7125    4.2620
    1.7744   -2.5840    0.9653
    4.5100   -1.5834    3.1505
    6.9038   -2.0221    2.7085
    7.5798   -3.4012    0.7585
    5.8545   -4.3276   -0.7598
@<BUDE>CONF  34
   -1.5707    3.9366    6.4177
   -2.2476    4.6567    5.2550
   -1.7553    6.0998    5.1934
   -1.9074    3.9543    3.9625
   -1.6507    2.5786    4.0010
   -1.4305    1.8777    2.8093
   -1.4714    2.5408    1.5770
   -1.6753    3.9251    1.5323
   -1.8607    4.6244    2.7308
   -1.2575    1.6234    0.0784
   -2.8789    1.0503   -0.5175
   -2.6963    0.2677   -1.7959
   -2.9275    0.7810   -2.8499
   -2.2717   -1.0129   -1.7480
   -2.1137   -1.7138   -2.9844
   -1.6346   -3.1188   -2.7078
   -2.2982   -4.0810   -3.0909
   -0.4957   -3.3166   -2.0502
   -0.0307   -4.6850   -1.7818
    0.2975   -2.1667   -1.5925
    1.7602   -2.4251   -1.8641
    2.5850   -2.2971   -0.9607
    2.1558   -2.7911   -3.0801
    3.5265   -3.0333   -3.3346
    4.1129   -2.5632   -4.5157
    5.4711   -2.7990   -4.7600
    6.2405   -3.5084   -3.8335
    5.6518   -3.9906   -2.6583
    4.2956   -3.7487   -2.4090
    3.5592   -4.3497   -0.9516
   -0.4919    3.9584    6.2782
   -1.8267    4.4349    7.3504
   -1.9119    2.9040    6.4519
   -3.3259    4.6465    5.3996
   -2.2479    6.6156    4.3718
   -0.6790    6.1086    5.0347
   -1.9886    6.6021    6.1299
   -1.6348    2.0416    4.9378
   -1.2333    0.8161    2.7869
   -1.6856    4.4260    0.5756
   -1.9808    5.6965    2.6805
   -3.3379    0.4125    0.2351
   -3.5204    1.9084   -0.7068
   -1.3831   -1.1975   -3.6038
   -3.0684   -1.7527   -3.5047
    0.1272   -5.2052   -2.7243
    0.9041   -4.6473   -1.2265
   -0.7801   -5.2137   -1.1963
   -0.0189   -1.2731   -2.1266
    0.1458   -2.0245   -0.5245
    1.4776   -2.8960   -3.8212
    3.5237   -2.0148   -5.2357
    5.9235   -2.4290   -5.6683
    7.2890   -3.6866   -4.0205
    6.2433   -4.5445   -1.9444
@<BUDE>CONF  35
   -2.0677    2.3500    5.6368
   -1.7822    3.3643    4.5330
   -0.6277    4.2675    4.9571
   -1.4096    2.6348    3.2646
   -1.9446    1.3592    3.0495
   -1.7007    0.6965    1.8407
   -0.9305    1.3025    0.8410
   -0.3480    2.5551    1.0675
   -0.5685    3.1965    2.2922
   -0.6910    0.4756   -0.7056
   -2.0161    0.9520   -1.8586
   -1.8118    0.2466   -3.1780
   -2.4608   -0.7203   -3.4463
   -0.8954    0.7085   -4.0550
   -0.7374    0.0076   -5.2914
   -0.2583   -1.3974   -5.0148
   -0.9219   -2.3596   -5.3979
    0.8806   -1.5952   -4.3572
    1.6737   -0.4453   -3.8994
    1.3455   -2.9637   -4.0887
    1.8642   -3.0494   -2.6731
    2.9816   -3.5148   -2.4551
    1.1123   -2.6216   -1.6628
    1.5984   -2.7019   -0.3363
    0.7522   -3.1268    0.6948
    1.2394   -3.2115    2.0045
    2.5639   -2.8659    2.2869
    3.4071   -2.4279    1.2587
    2.9235   -2.3502   -0.0528
    3.9671   -1.8026   -1.3329
   -1.1755    1.7553    5.8215
   -2.3491    2.8753    6.5471
   -2.8816    1.6976    5.3274
   -2.6698    3.9680    4.3559
   -0.4334    4.9981    4.1746
    0.2629    3.6642    5.1202
   -0.8910    4.7831    5.8783
   -2.5591    0.8802    3.7974
   -2.0950   -0.2858    1.6261
    0.2592    3.0020    0.2942
   -0.0826    4.1456    2.4638
   -2.9801    0.6679   -1.4417
   -1.9913    2.0283   -2.0159
   -0.0068    0.5239   -5.9108
   -1.6921   -0.0313   -5.8117
    1.0817    0.1502   -3.2075
    2.5707   -0.8012   -3.3971
    1.9544    0.1647   -4.7555
    0.5179   -3.6586   -4.2150
    2.1430   -3.2181   -4.7838
    0.1949   -2.2395   -1.8430
   -0.2724   -3.3950    0.4831
    0.5871   -3.5468    2.7974
    2.9403   -2.9352    3.2967
    4.4289   -2.1542    1.4763
@<BUDE>CONF  36
   -5.9385   -2.7778   -3.5720
   -5.2502   -2.7881   -2.2100
   -4.2715   -3.9570   -2.1426
   -4.4995   -1.4925   -2.0167
   -4.8605   -0.6685   -0.9441
   -4.1213    0.4898   -0.6762
   -3.0183    0.8281   -1.4692
   -2.6817    0.0387   -2.5753
   -3.4468   -1.0994   -2.8568
   -2.0570    2.2602   -1.0718
   -0.7149    1.7924    0.0649
    0.1052    3.0142    0.4039
   -0.0565    3.5724    1.4480
    1.0216    3.4761   -0.4731
    1.1796    2.7752   -1.7095
    1.6587    1.3702   -1.4329
    0.9951    0.4080   -1.8160
    2.7976    1.1724   -0.7753
    3.5907    2.3223   -0.3175
    3.2625   -0.1961   -0.5068
    3.7812   -0.2818    0.9088
    4.8986   -0.7472    1.1268
    3.0293    0.1460    1.9191
    3.5154    0.0657    3.2456
    2.6692   -0.3592    4.2767
    3.1564   -0.4439    5.5864
    4.4809   -0.0983    5.8688
    5.3241    0.3397    4.8406
    4.8405    0.4174    3.5291
    5.8841    0.9650    2.2490
   -5.1894   -2.6844   -4.3554
   -6.4903   -3.7059   -3.7057
   -6.6256   -1.9358   -3.6240
   -5.9973   -2.8941   -1.4263
   -3.7906   -3.9706   -1.1667
   -3.5168   -3.8424   -2.9179
   -4.8104   -4.8897   -2.2952
   -5.6946   -0.9197   -0.3057
   -4.3574    1.1543    0.1418
   -1.8397    0.3224   -3.1891
   -3.1953   -1.6769   -3.7341
   -1.1391    1.3768    0.9765
   -0.0780    1.0496   -0.4111
    1.9102    3.2915   -2.3289
    0.2249    2.7363   -2.2298
    2.9987    2.9178    0.3744
    4.4877    1.9664    0.1848
    3.8714    2.9323   -1.1736
    2.4349   -0.8910   -0.6331
    4.0600   -0.4505   -1.2019
    2.1119    0.5281    1.7389
    1.6446   -0.6274    4.0650
    2.5041   -0.7792    6.3793
    4.8573   -0.1676    6.8786
    6.3459    0.6134    5.0582
@<BUDE>CONF  37
   -1.9266    4.7543   -2.4961
   -1.1256    4.6004   -1.2064
   -0.8178    5.9795   -0.6302
   -1.9314    3.8065   -0.2063
   -2.8458    2.8626   -0.6886
   -3.5361    2.0398    0.2094
   -3.3146    2.1488    1.5874
   -2.4416    3.1251    2.0819
   -1.7808    3.9669    1.1793
   -4.1474    1.0530    2.7003
   -3.1309   -0.4342    2.9598
   -2.9266   -1.1396    1.6404
   -3.5756   -2.1065    1.3721
   -2.0102   -0.6777    0.7634
   -1.8522   -1.3786   -0.4730
   -1.3731   -2.7836   -0.1964
   -2.0367   -3.7458   -0.5795
   -0.2342   -2.9814    0.4612
    0.2308   -4.3498    0.7296
    0.5590   -1.8315    0.9189
    2.0217   -2.0899    0.6473
    2.8465   -1.9619    1.5507
    2.4173   -2.4559   -0.5687
    3.7880   -2.6981   -0.8232
    4.3744   -2.2280   -2.0043
    5.7326   -2.4638   -2.2486
    6.5020   -3.1732   -1.3221
    5.9133   -3.6554   -0.1469
    4.5571   -3.4135    0.1024
    3.8207   -4.0145    1.5598
   -2.8516    5.2873   -2.2864
   -1.3406    5.3150   -3.2215
   -2.1575    3.7701   -2.8985
   -0.1945    4.0786   -1.4170
   -0.2361    5.8689    0.2826
   -1.7497    6.4948   -0.4069
   -0.2486    6.5564   -1.3561
   -3.0181    2.7457   -1.7483
   -4.2474    1.2942   -0.1139
   -2.2949    3.2099    3.1485
   -1.1387    4.7376    1.5795
   -2.1650   -0.1471    3.3702
   -3.6361   -1.1031    3.6535
   -1.1216   -0.8623   -1.0924
   -2.8069   -1.4175   -0.9933
    0.3887   -4.8700   -0.2129
    1.1656   -4.3121    1.2849
   -0.5186   -4.8785    1.3151
    0.2426   -0.9379    0.3848
    0.4073   -1.6893    1.9869
    1.7391   -2.5608   -1.3098
    3.7852   -1.6796   -2.7243
    6.1850   -2.0938   -3.1569
    7.5505   -3.3514   -1.5091
    6.5048   -4.2093    0.5670
@<BUDE>CONF  38
    1.2116    6.8436   -2.5370
    1.0637    5.4266   -3.0836
    2.4098    4.9421   -3.6145
    0.5992    4.5080   -1.9789
   -0.1842    5.0468   -0.9515
   -0.7147    4.2057    0.0339
   -0.4732    2.8272   -0.0033
    0.3520    2.2867   -0.9966
    0.9065    3.1392   -1.9586
   -1.2092    1.7735    1.2137
   -2.8306    1.2004    0.6178
   -2.6480    0.4178   -0.6606
   -2.8792    0.9311   -1.7146
   -2.2234   -0.8628   -0.6127
   -2.0654   -1.5637   -1.8491
   -1.5863   -2.9687   -1.5725
   -2.2499   -3.9309   -1.9556
   -0.4474   -3.1665   -0.9149
    0.3457   -2.0166   -0.4571
    0.0175   -4.5350   -0.6464
    0.5362   -4.6207    0.7692
    1.6536   -5.0861    0.9872
   -0.2157   -4.1929    1.7795
    0.2704   -4.2732    3.1060
    1.3069   -5.1604    3.4193
    1.7894   -5.2313    4.7316
    1.2347   -4.4262    5.7303
    0.1889   -3.5483    5.4209
   -0.2892   -3.4706    4.1074
   -1.5915   -2.3838    3.7195
    1.9521    6.8487   -1.7399
    1.5335    7.5081   -3.3362
    0.2545    7.1826   -2.1461
    0.3326    5.4224   -3.8892
    2.3003    3.9366   -4.0152
    3.1364    4.9334   -2.8047
    2.7509    5.6117   -4.4014
   -0.4015    6.1040   -0.9135
   -1.3282    4.5729    0.8433
    0.5446    1.2240   -1.0016
    1.5692    2.7110   -2.6960
   -3.2896    0.5626    1.3704
   -3.4721    2.0585    0.4285
   -1.3348   -1.0474   -2.4685
   -3.0201   -1.6026   -2.3694
   -0.2463   -1.4211    0.2348
    1.2427   -2.3725    0.0452
    0.6264   -1.4066   -1.3132
   -0.8101   -5.2299   -0.7727
    0.8150   -4.7894   -1.3415
   -1.1331   -3.8108    1.5993
    1.7395   -5.7856    2.6521
    2.5944   -5.9111    4.9697
    1.6099   -4.4784    6.7416
   -0.2452   -2.9301    6.1927
@<BUDE>CONF  39
    0.3682    6.9744    1.2810
    0.9256    5.6212    0.8487
    2.0207    5.1877    1.8190
   -0.1834    4.5966    0.8525
   -1.4908    5.0310    0.6041
   -2.5276    4.0959    0.5014
   -2.2665    2.7274    0.6389
   -0.9719    2.2877    0.9395
    0.0531    3.2316    1.0744
   -3.5800    1.5581    0.4383
   -3.6822    1.0558   -1.3081
   -2.3827    0.4070   -1.7211
   -1.5788    1.0263   -2.3520
   -2.1290   -0.8735   -1.3772
   -3.1207   -1.5744   -0.6221
   -2.6416   -2.9794   -0.3455
   -3.3052   -3.9416   -0.7286
   -1.5027   -3.1772    0.3121
   -0.7096   -2.0273    0.7699
   -1.0378   -4.5457    0.5806
    0.4475   -4.6316    0.3220
    1.1949   -5.0969    1.1808
    0.9465   -4.2040   -0.8343
    2.3382   -4.2845   -1.0767
    3.0054   -3.2161   -1.6876
    4.3838   -3.2972   -1.9189
    5.0935   -4.4434   -1.5499
    4.4248   -5.5179   -0.9513
    3.0479   -5.4349   -0.7121
    2.2124   -6.7698    0.0280
   -0.0345    6.8949    2.2885
    1.1646    7.7156    1.2654
   -0.4221    7.2758    0.5965
    1.3399    5.7024   -0.1540
    2.4258    4.2288    1.5027
    1.6019    5.0933    2.8188
    2.8137    5.9327    1.8262
   -1.7134    6.0797    0.4737
   -3.5509    4.3812    0.3063
   -0.7891    1.2302    1.0613
    1.0380    2.8781    1.3416
   -4.4973    0.3464   -1.4350
   -3.8627    1.9315   -1.9280
   -4.0486   -1.6133   -1.1889
   -3.2920   -1.0582    0.3202
   -1.3016   -1.4318    1.4618
    0.1874   -2.3832    1.2722
   -0.4289   -1.4173   -0.0862
   -1.2410   -4.7999    1.6188
   -1.5611   -5.2406   -0.0728
    0.3317   -3.8221   -1.5389
    2.4626   -2.3278   -1.9754
    4.8981   -2.4687   -2.3835
    6.1574   -4.5039   -1.7250
    4.9705   -6.4069   -0.6715
@<BUDE>CONF  40
   -0.5874    4.2655    4.8372
   -1.2643    4.9856    3.6745
   -0.7720    6.4287    3.6129
   -0.9241    4.2832    2.3820
   -0.6674    2.9075    2.4205
   -0.4472    2.2066    1.2288
   -0.4881    2.8697   -0.0035
   -0.6920    4.2540   -0.0482
   -0.8774    4.9533    1.1503
   -0.2742    1.9523   -1.5021
   -1.8956    1.3792   -2.0980
   -1.7130    0.5966   -3.3764
   -1.9442    1.1099   -4.4304
   -1.2884   -0.6840   -3.3285
   -1.1304   -1.3849   -4.5649
   -0.6513   -2.7899   -4.2883
   -1.3149   -3.7521   -4.6714
    0.4876   -2.9877   -3.6307
    1.2807   -1.8378   -3.1729
    0.9525   -4.3562   -3.3622
    1.4712   -4.4419   -1.9466
    2.5886   -4.9073   -1.7286
    0.7193   -4.0141   -0.9363
    1.2054   -4.0944    0.3902
    2.2419   -4.9816    0.7035
    2.7244   -5.0525    2.0158
    2.1697   -4.2474    3.0145
    1.1239   -3.3695    2.7051
    0.6458   -3.2918    1.3916
   -0.6565   -2.2050    1.0037
    0.4914    4.2873    4.6977
   -0.8434    4.7638    5.7699
   -0.9286    3.2329    4.8714
   -2.3426    4.9754    3.8191
   -1.2646    6.9445    2.7913
    0.3043    6.4375    3.4542
   -1.0053    6.9310    4.5494
   -0.6515    2.3705    3.3573
   -0.2500    1.1450    1.2064
   -0.7023    4.7549   -1.0049
   -0.9975    6.0254    1.1000
   -2.3546    0.7414   -1.3454
   -2.5371    2.2373   -2.2873
   -0.3998   -0.8686   -5.1843
   -2.0851   -1.4238   -5.0852
    0.6887   -1.2423   -2.4810
    2.1777   -2.1937   -2.6706
    1.5614   -1.2278   -4.0290
    0.1249   -5.0511   -3.4885
    1.7500   -4.6106   -4.0573
   -0.1981   -3.6320   -1.1165
    2.6745   -5.6068   -0.0637
    3.5294   -5.7323    2.2539
    2.5449   -4.2996    4.0258
    0.6898   -2.7513    3.4769
@<BUDE>CONF  41
    2.5705    4.9335    0.9375
    1.2512    5.5140    0.4363
    1.5055    6.8717   -0.2122
    0.6443    4.5774   -0.5806
    0.9164    3.2087   -0.4696
    0.2910    2.3020   -1.3338
   -0.6105    2.7527   -2.3053
   -0.8487    4.1237   -2.4583
   -0.1934    5.0265   -1.6126
   -1.4411    1.5834   -3.3425
   -3.0045    1.0811   -2.5578
   -2.7124    0.4324   -1.2259
   -2.8569    1.0517   -0.2142
   -2.2878   -0.8482   -1.1780
   -2.1298   -1.5491   -2.4144
   -1.6507   -2.9541   -2.1378
   -2.3143   -3.9163   -2.5209
   -0.5118   -3.1519   -1.4802
    0.2813   -2.0020   -1.0224
   -0.0469   -4.5204   -1.2117
    0.4718   -4.6061    0.2039
    1.5892   -5.0715    0.4219
   -0.2801   -4.1783    1.2142
    0.2060   -4.2586    2.5407
   -0.6402   -4.6835    3.5718
   -0.1530   -4.7682    4.8815
    1.1715   -4.4226    5.1639
    2.0147   -3.9846    4.1357
    1.5311   -3.9069    2.8242
    2.5747   -3.3593    1.5441
    3.2593    4.8262    0.1022
    3.0012    5.6020    1.6801
    2.3898    3.9593    1.3870
    0.5658    5.6335    1.2727
    0.5626    7.2901   -0.5579
    2.1800    6.7487   -1.0570
    1.9552    7.5426    0.5169
    1.5922    2.8352    0.2855
    0.4647    1.2372   -1.2845
   -1.5325    4.4579   -3.2245
   -0.3612    6.0821   -1.7678
   -3.6317    1.9568   -2.4041
   -3.5220    0.3717   -3.2002
   -1.3992   -1.0328   -3.0338
   -3.0845   -1.5880   -2.9347
   -0.3107   -1.4065   -0.3305
    1.1783   -2.3579   -0.5201
    0.5620   -1.3920   -1.8785
   -0.8745   -5.2153   -1.3380
    0.7506   -4.7748   -1.9068
   -1.1975   -3.7962    1.0340
   -1.6648   -4.9517    3.3601
   -0.8053   -5.1035    5.6744
    1.5479   -4.4919    6.1737
    3.0365   -3.7109    4.3533
@<BUDE>CONF  42
   -6.8029    3.6644    2.6524
   -6.1097    4.5024    1.5819
   -5.9753    5.9421    2.0695
   -4.7376    3.9341    1.3094
   -4.5383    2.5607    1.4929
   -3.3083    1.9842    1.1545
   -2.2764    2.7698    0.6273
   -2.4484    4.1523    0.4894
   -3.6696    4.7264    0.8621
   -0.7531    2.0093    0.1432
   -0.8553    1.5070   -1.6032
    0.4442    0.8582   -2.0162
    1.2481    1.4775   -2.6471
    0.6979   -0.4223   -1.6723
   -0.2938   -1.1232   -0.9172
    0.1853   -2.5282   -0.6406
   -0.4783   -3.4904   -1.0237
    1.3242   -2.7260    0.0170
    2.1173   -1.5761    0.4748
    1.7891   -4.0945    0.2855
    3.2744   -4.1804    0.0269
    4.0218   -4.6457    0.8857
    3.7734   -3.7528   -1.1294
    5.1651   -3.8333   -1.3718
    5.8323   -2.7649   -1.9827
    7.2107   -2.8460   -2.2140
    7.9204   -3.9922   -1.8450
    7.2517   -5.0667   -1.2464
    5.8748   -4.9837   -1.0072
    5.0393   -6.3186   -0.2671
   -6.2199    3.6957    3.5704
   -7.7967    4.0659    2.8392
   -6.8855    2.6352    2.3093
   -6.6981    4.4820    0.6670
   -5.4922    6.5412    1.3005
   -5.3749    5.9625    2.9767
   -6.9633    6.3472    2.2786
   -5.3263    1.9307    1.8784
   -3.1079    0.9296    1.2732
   -1.6369    4.7483    0.0989
   -3.7726    5.7985    0.7828
   -1.6704    0.7976   -1.7301
   -1.0358    2.3827   -2.2231
   -1.2217   -1.1621   -1.4840
   -0.4651   -0.6070    0.0251
    1.5253   -0.9806    1.1667
    3.0143   -1.9320    0.9771
    2.3980   -0.9661   -0.3813
    1.5859   -4.3487    1.3237
    1.2658   -4.7894   -0.3679
    3.1586   -3.3709   -1.8340
    5.2895   -1.8766   -2.2705
    7.7250   -2.0175   -2.6786
    8.9843   -4.0527   -2.0201
    7.7974   -5.9557   -0.9666
@<BUDE>CONF  43
   -7.2176    5.0665   -0.8552
   -6.7180    4.1348    0.2453
   -7.8252    3.1560    0.6258
   -5.5177    3.3665   -0.2535
   -4.6979    3.9660   -1.2169
   -3.5231    3.3251   -1.6279
   -3.1574    2.0907   -1.0780
   -3.9972    1.4590   -0.1531
   -5.1873    2.0906    0.2274
   -1.6342    1.3302   -1.5621
   -0.3027    1.8795   -0.4496
    0.9968    1.2307   -0.8626
    1.8007    1.8500   -1.4935
    1.2505   -0.0498   -0.5187
    0.2588   -0.7507    0.2364
    0.7379   -2.1557    0.5130
    0.0743   -3.1179    0.1299
    1.8768   -2.3535    1.1706
    2.6699   -1.2036    1.6284
    2.3417   -3.7220    1.4391
    3.8270   -3.8079    1.1805
    4.5744   -4.2732    2.0393
    4.3260   -3.3803    0.0242
    5.7177   -3.4608   -0.2182
    6.3849   -2.3924   -0.8291
    7.7633   -2.4735   -1.0604
    8.4730   -3.6197   -0.6914
    7.8043   -4.6942   -0.0928
    6.4274   -4.6112    0.1464
    5.5919   -5.9461    0.8865
   -7.5113    4.4782   -1.7220
   -8.0744    5.6299   -0.4913
   -6.4228    5.7547   -1.1354
   -6.4358    4.7210    1.1172
   -7.4720    2.5005    1.4190
   -8.0967    2.5608   -0.2436
   -8.6949    3.7102    0.9726
   -4.9484    4.9275   -1.6402
   -2.8562    3.7491   -2.3641
   -3.7113    0.4981    0.2486
   -5.8404    1.5731    0.9144
   -0.2023    2.9612   -0.5094
   -0.5417    1.5928    0.5724
   -0.6691   -0.7896   -0.3304
    0.0875   -0.2345    1.1787
    2.0779   -0.6081    2.3203
    3.5669   -1.5595    2.1307
    2.9506   -0.5936    0.7723
    2.1385   -3.9762    2.4773
    1.8184   -4.4169    0.7857
    3.7112   -2.9984   -0.6804
    5.8421   -1.5041   -1.1169
    8.2776   -1.6450   -1.5250
    9.5369   -3.6802   -0.8665
    8.3500   -5.5832    0.1870
@<BUDE>CONF  44
    1.6039    4.6009    2.5117
    0.2846    5.1814    2.0105
    0.5389    6.5391    1.3620
   -0.3223    4.2448    0.9936
   -0.0502    2.8761    1.1046
   -0.6756    1.9694    0.2404
   -1.5771    2.4201   -0.7311
   -1.8153    3.7911   -0.8841
   -1.1600    4.6939   -0.0384
   -2.4077    1.2508   -1.7683
   -3.9711    0.7485   -0.9836
   -3.6790    0.0998    0.3483
   -3.8235    0.7191    1.3600
   -3.2544   -1.1808    0.3962
   -3.0964   -1.8817   -0.8402
   -2.6173   -3.2867   -0.5636
   -3.2809   -4.2489   -0.9467
   -1.4784   -3.4845    0.0940
   -1.0134   -4.8529    0.3624
   -0.6852   -2.3346    0.5517
    0.7775   -2.5930    0.2801
    1.6023   -2.4650    1.1835
    1.1731   -2.9590   -0.9359
    2.5438   -3.2012   -1.1904
    3.1302   -2.7311   -2.3715
    4.4884   -2.9669   -2.6158
    5.2578   -3.6763   -1.6893
    4.6691   -4.1585   -0.5141
    3.3129   -3.9166   -0.2648
    2.5765   -4.5176    1.1926
    2.2927    4.4936    1.6764
    2.0346    5.2694    3.2543
    1.4232    3.6267    2.9612
   -0.4008    5.3009    2.8469
   -0.4040    6.9575    1.0163
    1.2134    6.4161    0.5172
    0.9886    7.2100    2.0911
    0.6256    2.5026    1.8597
   -0.5019    0.9046    0.2897
   -2.4991    4.1253   -1.6503
   -1.3278    5.7495   -0.1936
   -4.5983    1.6242   -0.8299
   -4.4886    0.0391   -1.6260
   -2.3658   -1.3654   -1.4596
   -4.0511   -1.9206   -1.3605
   -0.8555   -5.3731   -0.5801
   -0.0786   -4.8152    0.9177
   -1.7628   -5.3816    0.9479
   -1.0016   -1.4410    0.0176
   -0.8369   -2.1924    1.6197
    0.4949   -3.0639   -1.6770
    2.5410   -2.1827   -3.0915
    4.9408   -2.5969   -3.5241
    6.3063   -3.8545   -1.8763
    5.2606   -4.7124    0.1998
@<BUDE>CONF  45
    1.2485    6.6137   -0.3523
    1.8059    5.2605   -0.7846
    2.9010    4.8270    0.1857
    0.6969    4.2359   -0.7808
   -0.6105    4.6703   -1.0292
   -1.6473    3.7352   -1.1319
   -1.3862    2.3667   -0.9944
   -0.0916    1.9270   -0.6938
    0.9334    2.8709   -0.5589
   -2.6997    1.1974   -1.1950
   -2.8019    0.6951   -2.9414
   -1.5024    0.0463   -3.3544
   -0.6985    0.6656   -3.9853
   -1.2487   -1.2342   -3.0105
   -2.2404   -1.9351   -2.2554
   -1.7613   -3.3401   -1.9788
   -2.4249   -4.3023   -2.3619
   -0.6224   -3.5379   -1.3212
   -0.1574   -4.9063   -1.0528
    0.1708   -2.3880   -0.8635
    0.6669   -2.6462    0.5391
    1.8617   -2.5183    0.8017
   -0.1883   -3.0120    1.4898
    0.2766   -3.2540    2.8041
   -0.2014   -4.3552    3.5241
    0.2668   -4.5948    4.8216
    1.2025   -3.7345    5.4026
    1.6711   -2.6252    4.6885
    1.2098   -2.3889    3.3880
    1.7866   -1.0091    2.4985
    0.8458    6.5342    0.6552
    2.0449    7.3549   -0.3679
    0.4582    6.9151   -1.0368
    2.2202    5.3417   -1.7873
    3.3061    3.8681   -0.1306
    2.4822    4.7326    1.1855
    3.6940    5.5720    0.1929
   -0.8331    5.7190   -1.1596
   -2.6706    4.0205   -1.3270
    0.0912    0.8695   -0.5720
    1.9183    2.5174   -0.2917
   -3.6170   -0.0143   -3.0683
   -2.9824    1.5708   -3.5613
   -3.1683   -1.9740   -2.8222
   -2.4117   -1.4189   -1.3131
    0.0005   -5.4265   -1.9953
    0.7774   -4.8686   -0.4975
   -0.9068   -5.4350   -0.4673
    1.0198   -2.2460   -1.5288
   -0.4498   -1.4944   -0.8705
   -1.1693   -3.1167    1.2730
   -0.9249   -5.0236    3.0809
   -0.0977   -5.4493    5.3727
    1.5663   -3.9219    6.4020
    2.3893   -1.9558    5.1384
@<BUDE>CONF  46
   -5.9250    3.3176    1.0225
   -5.2318    4.1556   -0.0480
   -5.0974    5.5953    0.4396
   -3.8597    3.5873   -0.3205
   -3.6604    2.2139   -0.1370
   -2.4304    1.6374   -0.4754
   -1.3985    2.4230   -1.0026
   -1.5705    3.8055   -1.1405
   -2.7917    4.3796   -0.7678
    0.1248    1.6625   -1.4867
    0.0226    1.1602   -3.2331
    1.3221    0.5114   -3.6461
    2.1260    1.1307   -4.2770
    1.5758   -0.7691   -3.3022
    0.5841   -1.4700   -2.5471
    1.0632   -2.8750   -2.2705
    0.3996   -3.8372   -2.6536
    2.2021   -3.0728   -1.6129
    2.6671   -4.4412   -1.3445
    2.9953   -1.9229   -1.1552
    3.4914   -2.1811    0.2474
    4.6862   -2.0532    0.5100
    2.6362   -2.5469    1.1981
    3.1011   -2.7889    2.5124
    2.3786   -2.3071    3.6104
    2.8386   -2.5551    4.9092
    4.0197   -3.2741    5.1126
    4.7502   -3.7448    4.0149
    4.2872   -3.5043    2.7158
    5.1943   -4.0841    1.3487
   -5.3420    3.3489    1.9405
   -6.9188    3.7191    1.2093
   -6.0076    2.2884    0.6794
   -5.8202    4.1352   -0.9629
   -4.6143    6.1944   -0.3294
   -4.4970    5.6157    1.3468
   -6.0854    6.0004    0.6487
   -4.4484    1.5839    0.2485
   -2.2300    0.5828   -0.3567
   -0.7590    4.4015   -1.5310
   -2.8947    5.4517   -0.8471
   -0.7925    0.4508   -3.3600
   -0.1579    2.0359   -3.8530
   -0.3438   -1.5089   -3.1139
    0.4128   -0.9538   -1.6048
    2.8250   -4.9614   -2.2870
    3.6019   -4.4035   -0.7892
    1.9177   -4.9699   -0.7590
    3.8443   -1.7809   -1.8205
    2.3747   -1.0293   -1.1622
    1.6552   -2.6516    0.9813
    1.4653   -1.7505    3.4598
    2.2757   -2.1890    5.7552
    4.3721   -3.4685    6.1148
    5.6665   -4.2949    4.1702
@<BUDE>CONF  47
    0.2317    6.5149   -0.9385
    0.0838    5.0979   -1.4851
    1.4299    4.6134   -2.0160
   -0.3807    4.1793   -0.3804
   -1.1641    4.7181    0.6470
   -1.6946    3.8770    1.6324
   -1.4531    2.4985    1.5952
   -0.6279    1.9580    0.6019
   -0.0734    2.8105   -0.3601
   -2.1891    1.4448    2.8122
   -3.8105    0.8717    2.2163
   -3.6279    0.0891    0.9379
   -3.8591    0.6024   -0.1161
   -3.2033   -1.1915    0.9858
   -3.0453   -1.8924   -0.2506
   -2.5662   -3.2974    0.0260
   -3.2298   -4.2596   -0.3571
   -1.4273   -3.4952    0.6836
   -0.9623   -4.8636    0.9520
   -0.6341   -2.3453    1.1413
    0.8286   -2.6037    0.8697
    1.6534   -2.4757    1.7731
    1.2242   -2.9697   -0.3463
    2.5949   -3.2119   -0.6008
    3.5701   -2.6741    0.2474
    4.9248   -2.9223   -0.0042
    5.3064   -3.6974   -1.1028
    4.3326   -4.2244   -1.9594
    2.9772   -3.9837   -1.7045
    1.7639   -4.6335   -2.7690
    0.9722    6.5200   -0.1414
    0.5536    7.1794   -1.7377
   -0.7254    6.8539   -0.5476
   -0.6473    5.0937   -2.2907
    1.3204    3.6079   -2.4167
    2.1565    4.6047   -1.2062
    1.7710    5.2830   -2.8029
   -1.3814    5.7753    0.6850
   -2.3081    4.2442    2.4418
   -0.4353    0.8953    0.5969
    0.5893    2.3823   -1.0975
   -4.2695    0.2339    2.9689
   -4.4520    1.7298    2.0270
   -2.3147   -1.3761   -0.8700
   -4.0000   -1.9313   -0.7709
   -0.8044   -5.3838    0.0095
   -0.0275   -4.8259    1.5073
   -1.7117   -5.3923    1.5375
   -0.9505   -1.4517    0.6072
   -0.7858   -2.2031    2.2093
    0.5460   -3.0746   -1.0874
    3.2816   -2.0740    1.0978
    5.6754   -2.5127    0.6558
    6.3514   -3.8918   -1.2942
    4.6261   -4.8182   -2.8125
@<BUDE>CONF  48
   -5.7751    1.6301   -3.8988
   -4.4643    1.0732   -4.4468
   -4.3105    1.4787   -5.9098
   -3.3096    1.6279   -3.6476
   -3.5292    1.9620   -2.3061
   -2.4583    2.3843   -1.5093
   -1.1665    2.4692   -2.0421
   -0.9466    2.1877   -3.3956
   -2.0288    1.7990   -4.1942
    0.1842    2.9403   -0.9996
    0.9172    1.4531   -0.2490
   -0.1233    0.7477    0.5876
   -0.6801   -0.2192    0.1598
   -0.4246    1.2097    1.8198
   -1.4163    0.5088    2.5749
   -0.9372   -0.8962    2.8515
   -1.6008   -1.8584    2.4684
    0.2017   -1.0940    3.5091
    0.9948    0.0559    3.9669
    0.6666   -2.4625    3.7776
    2.1519   -2.5484    3.5190
    2.8993   -3.0137    4.3778
    2.6509   -2.1208    2.3627
    4.0426   -2.2013    2.1203
    4.9350   -2.3107    3.1934
    6.3107   -2.3973    2.9485
    6.7959   -2.3665    1.6381
    5.9054   -2.2434    0.5649
    4.5289   -2.1648    0.8079
    3.4190   -2.0077   -0.5229
   -5.7733    2.7144   -3.9884
   -6.6080    1.2200   -4.4661
   -5.8769    1.3522   -2.8518
   -4.4700   -0.0120   -4.3692
   -3.3817    1.0706   -6.3029
   -4.2908    2.5640   -5.9845
   -5.1496    1.0903   -6.4833
   -4.5129    1.8845   -1.8672
   -2.5763    2.6483   -0.4687
    0.0521    2.2757   -3.7972
   -1.8479    1.6204   -5.2438
    1.2654    0.7842   -1.0334
    1.7555    1.7403    0.3822
   -2.3442    0.4699    2.0081
   -1.5876    1.0250    3.5172
    0.4028    0.6514    4.6588
    1.8918   -0.3000    4.4692
    1.2755    0.6659    3.1108
    0.4634   -2.7167    4.8158
    0.1433   -3.1574    3.1242
    2.0361   -1.7389    1.6581
    4.5663   -2.3347    4.2083
    6.9970   -2.4893    3.7774
    7.8569   -2.4373    1.4495
    6.2792   -2.2130   -0.4479
@<BUDE>CONF  49
   -1.5673    3.9368    6.4356
   -2.2442    4.6569    5.2729
   -1.7519    6.1000    5.2113
   -1.9040    3.9545    3.9804
   -1.6473    2.5788    4.0189
   -1.4271    1.8779    2.8272
   -1.4680    2.5410    1.5949
   -1.6719    3.9253    1.5502
   -1.8573    4.6246    2.7487
   -1.2541    1.6236    0.0963
   -2.8755    1.0505   -0.4996
   -2.6929    0.2679   -1.7780
   -2.9241    0.7812   -2.8320
   -2.2683   -1.0127   -1.7301
   -2.1103   -1.7136   -2.9665
   -1.6312   -3.1186   -2.6899
   -2.2948   -4.0808   -3.0730
   -0.4923   -3.3164   -2.0323
   -0.0273   -4.6848   -1.7639
    0.3009   -2.1665   -1.5746
    1.7636   -2.4249   -1.8462
    2.5884   -2.2969   -0.9428
    2.1592   -2.7909   -3.0622
    3.5299   -3.0331   -3.3167
    4.5051   -2.4953   -2.4685
    5.8598   -2.7435   -2.7201
    6.2414   -3.5186   -3.8187
    5.2676   -4.0456   -4.6753
    3.9122   -3.8049   -4.4204
    2.6989   -4.4547   -5.4849
   -0.4885    3.9586    6.2961
   -1.8233    4.4351    7.3683
   -1.9085    2.9042    6.4698
   -3.3225    4.6467    5.4175
   -2.2445    6.6158    4.3897
   -0.6756    6.1088    5.0526
   -1.9852    6.6023    6.1478
   -1.6314    2.0418    4.9557
   -1.2299    0.8163    2.8048
   -1.6822    4.4262    0.5935
   -1.9774    5.6967    2.6984
   -3.3345    0.4127    0.2530
   -3.5170    1.9086   -0.6889
   -1.3797   -1.1973   -3.5859
   -3.0650   -1.7525   -3.4868
    0.1306   -5.2050   -2.7064
    0.9075   -4.6471   -1.2086
   -0.7767   -5.2135   -1.1784
   -0.0155   -1.2729   -2.1087
    0.1492   -2.0243   -0.5066
    1.4810   -2.8958   -3.8033
    4.2166   -1.8952   -1.6181
    6.6104   -2.3339   -2.0601
    7.2864   -3.7130   -4.0101
    5.5611   -4.6394   -5.5284
@<BUDE>CONF  50
   -1.9232    4.7545   -2.4781
   -1.1222    4.6006   -1.1884
   -0.8144    5.9797   -0.6122
   -1.9280    3.8067   -0.1883
   -2.8424    2.8628   -0.6706
   -3.5327    2.0400    0.2274
   -3.3112    2.1490    1.6054
   -2.4382    3.1253    2.0999
   -1.7774    3.9671    1.1973
   -4.1440    1.0532    2.7183
   -3.1275   -0.4340    2.9778
   -2.9232   -1.1394    1.6584
   -3.5722   -2.1063    1.3901
   -2.0068   -0.6775    0.7814
   -1.8488   -1.3784   -0.4550
   -1.3697   -2.7834   -0.1784
   -2.0333   -3.7456   -0.5615
   -0.2308   -2.9812    0.4792
    0.2342   -4.3496    0.7476
    0.5624   -1.8313    0.9369
    2.0251   -2.0897    0.6653
    2.8499   -1.9617    1.5687
    2.4207   -2.4557   -0.5507
    3.7914   -2.6979   -0.8052
    4.7666   -2.1601    0.0430
    6.1213   -2.4083   -0.2086
    6.5029   -3.1834   -1.3072
    5.5291   -3.7104   -2.1638
    4.1737   -3.4697   -1.9089
    2.9604   -4.1195   -2.9734
   -2.8482    5.2875   -2.2684
   -1.3372    5.3152   -3.2035
   -2.1541    3.7703   -2.8805
   -0.1911    4.0788   -1.3990
   -0.2327    5.8691    0.3006
   -1.7463    6.4950   -0.3889
   -0.2452    6.5566   -1.3381
   -3.0147    2.7459   -1.7303
   -4.2440    1.2944   -0.0959
   -2.2915    3.2101    3.1665
   -1.1353    4.7378    1.5975
   -2.1616   -0.1469    3.3882
   -3.6327   -1.1029    3.6715
   -1.1182   -0.8621   -1.0744
   -2.8035   -1.4173   -0.9753
    0.3921   -4.8698   -0.1949
    1.1690   -4.3119    1.3029
   -0.5152   -4.8783    1.3331
    0.2460   -0.9377    0.4028
    0.4107   -1.6891    2.0049
    1.7425   -2.5606   -1.2918
    4.4781   -1.5600    0.8934
    6.8719   -1.9987    0.4514
    7.5479   -3.3778   -1.4986
    5.8226   -4.3042   -3.0169
