@<TRIPOS>MOLECULE
ZINC61563277
   46    49     0     0     0
SMALL
USER_CHARGES

@<TRIPOS>ATOM
      1 C1          2.3031    0.7967   -4.1011 C.3       1 <0>        -0.1051
      2 C2          2.3236   -0.7102   -4.1094 C.2       1 <0>         0.1324
      3 C3          2.3293   -1.4752   -5.2129 C.2       1 <0>        -0.1714
      4 C4          2.3502   -2.8706   -4.7665 C.ar      1 <0>        -0.0773
      5 C5          2.3641   -4.1005   -5.4274 C.ar      1 <0>        -0.0675
      6 C6          2.3828   -5.2592   -4.7037 C.ar      1 <0>        -0.1361
      7 C7          2.3877   -5.2238   -3.3158 C.ar      1 <0>        -0.0920
      8 C8          2.3742   -4.0216   -2.6436 C.ar      1 <0>        -0.1265
      9 C9          2.3555   -2.8292   -3.3604 C.ar      1 <0>         0.1084
     10 N1          2.3449   -1.5025   -2.9927 N.pl3     1 <0>        -0.4675
     11 C10         2.3513   -1.0116   -1.6124 C.3       1 <0>         0.1242
     12 C11         0.9329   -0.8632   -1.1254 C.2       1 <0>         0.4463
     13 O1          0.0113   -1.1392   -1.8563 O.2       1 <0>        -0.4704
     14 O2          0.6934   -0.4244    0.1203 O.3       1 <0>        -0.3437
     15 C12        -0.6749   -0.3079    0.5153 C.3       1 <0>         0.1567
     16 C13        -0.7472    0.1953    1.9339 C.2       1 <0>         0.2874
     17 N2         -0.8065    1.4458    2.2992 N.2       1 <0>        -0.5106
     18 C14        -0.8604    1.5325    3.6331 C.2       1 <0>         0.2609
     19 N3         -0.8360    0.3314    4.1351 N.2       1 <0>        -0.3200
     20 O3         -0.7675   -0.5649    3.0360 O.3       1 <0>        -0.0928
     21 C15        -0.9365    2.8120    4.4256 C.3       1 <0>         0.0037
     22 C16        -2.3808    3.1877    4.6357 C.ar      1 <0>        -0.0973
     23 C17        -3.0286    3.9863    3.7119 C.ar      1 <0>        -0.0995
     24 C18        -4.3534    4.3308    3.9046 C.ar      1 <0>        -0.1207
     25 C19        -5.0304    3.8764    5.0208 C.ar      1 <0>        -0.1122
     26 C20        -4.3828    3.0770    5.9442 C.ar      1 <0>        -0.1201
     27 C21        -3.0593    2.7289    5.7493 C.ar      1 <0>        -0.1046
     28 Br1         2.3136   -0.8670   -7.0034 Br        1 <0>        -0.0155
     29 H1          3.3257    1.1740   -4.1088 H         1 <0>         0.0903
     30 H2          1.7760    1.1578   -4.9842 H         1 <0>         0.0953
     31 H3          1.7929    1.1482   -3.2043 H         1 <0>         0.0712
     32 H4          2.3597   -4.1357   -6.5068 H         1 <0>         0.1274
     33 H5          2.3936   -6.2102   -5.2154 H         1 <0>         0.1276
     34 H6          2.4018   -6.1482   -2.7576 H         1 <0>         0.1296
     35 H7          2.3784   -4.0046   -1.5638 H         1 <0>         0.1206
     36 H8          2.8813   -1.7211   -0.9769 H         1 <0>         0.1394
     37 H9          2.8521   -0.0442   -1.5731 H         1 <0>         0.1404
     38 H10        -1.1853    0.3930   -0.1453 H         1 <0>         0.1240
     39 H11        -1.1561   -1.2838    0.4509 H         1 <0>         0.1139
     40 H12        -0.4537    2.6699    5.3924 H         1 <0>         0.1085
     41 H13        -0.4297    3.6080    3.8800 H         1 <0>         0.1144
     42 H14        -2.4997    4.3413    2.8398 H         1 <0>         0.1277
     43 H15        -4.8594    4.9554    3.1833 H         1 <0>         0.1259
     44 H16        -6.0653    4.1462    5.1718 H         1 <0>         0.1247
     45 H17        -4.9117    2.7222    6.8164 H         1 <0>         0.1255
     46 H18        -2.5544    2.1013    6.4687 H         1 <0>         0.1245
@<TRIPOS>BOND
     1    1    2 1
     2    1   29 1
     3    1   30 1
     4    1   31 1
     5    2   10 1
     6    2    3 2
     7    3    4 1
     8    3   28 1
     9    4    9 ar
    10    4    5 ar
    11    5    6 ar
    12    5   32 1
    13    6    7 ar
    14    6   33 1
    15    7    8 ar
    16    7   34 1
    17    8    9 ar
    18    8   35 1
    19    9   10 1
    20   10   11 1
    21   11   12 1
    22   11   36 1
    23   11   37 1
    24   12   13 2
    25   12   14 1
    26   14   15 1
    27   15   16 1
    28   15   38 1
    29   15   39 1
    30   16   20 1
    31   16   17 2
    32   17   18 1
    33   18   19 2
    34   18   21 1
    35   19   20 1
    36   21   22 1
    37   21   40 1
    38   21   41 1
    39   22   27 ar
    40   22   23 ar
    41   23   24 ar
    42   23   42 1
    43   24   25 ar
    44   24   43 1
    45   25   26 ar
    46   25   44 1
    47   26   27 ar
    48   26   45 1
    49   27   46 1
@<BUDE>CONF  1
   -0.2037    2.6640    0.8573
   -1.6833    2.4068    1.0144
   -2.3466    2.3162    2.1751
   -3.7890    2.0410    1.8536
   -4.9447    1.8199    2.6121
   -6.1350    1.6439    1.8962
   -6.1530    1.7343    0.4982
   -4.9875    1.9667   -0.2420
   -3.7767    2.0660    0.4539
   -2.5125    2.2239    0.0071
   -2.1268    2.2234   -1.4205
   -1.9944    0.8000   -1.9065
   -2.7510    0.3771   -2.7291
   -1.0213    0.0059   -1.4114
   -0.9351   -1.3346   -1.9019
    0.2118   -2.0450   -1.2236
    1.3598   -2.5557   -1.6281
    2.0494   -3.0999   -0.5380
    1.3413   -2.9411    0.5164
    0.1606   -2.2853    0.1475
    3.4107   -3.7516   -0.5860
    4.4734   -2.7165   -0.3046
    5.0551   -1.9924   -1.3522
    6.0248   -1.0167   -1.0921
    6.4391   -0.7709    0.2189
    5.8699   -1.4988    1.2705
    4.8990   -2.4724    1.0066
   -1.6538    2.5069    3.9123
   -0.0538    3.5803    0.2902
    0.2545    1.8307    0.3289
    0.2523    2.7662    1.8398
   -4.9472    1.7842    3.6916
   -7.0443    1.4567    2.4478
   -7.0875    1.6285   -0.0328
   -5.0723    2.0691   -1.3137
   -1.1746    2.7362   -1.5384
   -2.8890    2.7368   -2.0030
   -0.7667   -1.3167   -2.9767
   -1.8643   -1.8586   -1.6884
    3.5726   -4.1795   -1.5731
    3.4621   -4.5382    0.1639
    4.7641   -2.1827   -2.3746
    6.4625   -0.4623   -1.9090
    7.1852   -0.0183    0.4269
    6.1824   -1.3085    2.2867
    4.4828   -3.0368    1.8280
@<BUDE>CONF  2
   -0.2563    2.6949    0.8863
    0.9461    2.4564    1.7679
    0.9449    2.4254    3.1076
    2.3569    2.1726    3.5572
    2.9927    2.0630    4.7996
    4.3606    1.7655    4.7748
    5.0270    1.5477    3.5618
    4.3706    1.6516    2.3295
    3.0216    2.0260    2.3337
    2.1673    2.2595    1.3146
    2.5530    2.2590   -0.1130
    2.6854    0.8356   -0.5990
    3.7564    0.4095   -0.9143
    1.5937    0.0451   -0.6770
    1.7683   -1.2955   -1.1430
    0.4335   -2.0016   -1.1535
   -0.3515   -2.4936   -2.0937
   -1.4935   -3.0584   -1.5133
   -1.4246   -2.9104   -0.2437
   -0.2301   -2.2408    0.0477
   -2.6161   -3.7459   -2.2528
   -3.6950   -2.7400   -2.5760
   -4.7496   -2.5174   -1.6826
   -5.7391   -1.5696   -1.9696
   -5.6956   -0.8498   -3.1657
   -4.6501   -1.0750   -4.0690
   -3.6612   -2.0222   -3.7775
   -0.5250    2.6357    4.2605
   -0.4068    1.8338    0.2387
   -0.0894    3.5817    0.2786
   -1.1375    2.8406    1.5075
    2.4800    2.1938    5.7412
    4.8874    1.6876    5.7144
    6.0749    1.2865    3.5664
    4.9276    1.4298    1.4313
    3.5052    2.7718   -0.2309
    1.7908    2.7724   -0.6955
    2.4528   -1.8224   -0.4815
    2.1780   -1.2780   -2.1507
   -3.0304   -4.5353   -1.6292
   -2.2320   -4.1756   -3.1756
   -4.8131   -3.0792   -0.7624
   -6.5450   -1.4046   -1.2698
   -6.4545   -0.1157   -3.3926
   -4.6085   -0.5167   -4.9927
   -2.8714   -2.1957   -4.4933
@<BUDE>CONF  3
    0.3882    3.8831    1.0911
   -1.0914    3.6259    1.2482
   -1.7547    3.5353    2.4089
   -3.1971    3.2601    2.0874
   -4.3528    3.0390    2.8459
   -5.5431    2.8630    2.1300
   -5.5611    2.9534    0.7320
   -4.3956    3.1858   -0.0082
   -3.1848    3.2851    0.6877
   -1.9206    3.4430    0.2409
   -1.5349    3.4425   -1.1867
   -1.4025    2.0191   -1.6727
   -2.1591    1.5962   -2.4953
   -0.4294    1.2250   -1.1776
   -0.3432   -0.1155   -1.6681
    0.8037   -0.8259   -0.9898
    1.9517   -1.3366   -1.3943
    2.6413   -1.8808   -0.3042
    1.9332   -1.7220    0.7502
    0.7525   -1.0662    0.3813
    4.0026   -2.5325   -0.3522
    3.8406   -4.0200   -0.5554
    3.7394   -4.8805    0.5443
    3.5670   -6.2573    0.3586
    3.5166   -6.7907   -0.9311
    3.6283   -5.9377   -2.0356
    3.7986   -4.5610   -1.8459
   -1.0619    3.7260    4.1461
    0.5381    4.7994    0.5240
    0.8464    3.0498    0.5627
    0.8442    3.9853    2.0736
   -4.3553    3.0033    3.9254
   -6.4524    2.6758    2.6816
   -6.4956    2.8476    0.2010
   -4.4804    3.2882   -1.0799
   -0.5827    3.9553   -1.3046
   -2.2971    3.9559   -1.7692
   -0.1748   -0.0976   -2.7429
   -1.2724   -0.6395   -1.4546
    4.5252   -2.3484    0.5842
    4.5757   -2.1135   -1.1767
    3.7977   -4.4904    1.5496
    3.4860   -6.9095    1.2156
    3.3818   -7.8516   -1.0817
    3.5840   -6.3443   -3.0352
    3.9003   -3.9196   -2.7088
@<BUDE>CONF  4
   -0.9128    3.8972    0.7653
    0.2896    3.6587    1.6469
    0.2884    3.6277    2.9866
    1.7004    3.3749    3.4362
    2.3362    3.2653    4.6786
    3.7041    2.9678    4.6538
    4.3705    2.7500    3.4408
    3.7141    2.8539    2.2085
    2.3651    3.2283    2.2127
    1.5108    3.4618    1.1936
    1.8965    3.4613   -0.2340
    2.0289    2.0379   -0.7200
    3.0999    1.6118   -1.0353
    0.9372    1.2474   -0.7980
    1.1118   -0.0932   -1.2640
   -0.2230   -0.7993   -1.2745
   -1.0080   -1.2913   -2.2147
   -2.1500   -1.8561   -1.6343
   -2.0811   -1.7081   -0.3647
   -0.8866   -1.0385   -0.0733
   -3.2726   -2.5436   -2.3738
   -2.9933   -4.0258   -2.4459
   -2.2826   -4.5632   -3.5257
   -2.0031   -5.9338   -3.5839
   -2.4521   -6.7852   -2.5720
   -3.1730   -6.2566   -1.4946
   -3.4487   -4.8851   -1.4388
   -1.1815    3.8380    4.1395
   -1.0633    3.0361    0.1177
   -0.7459    4.7840    0.1576
   -1.7940    4.0429    1.3865
    1.8235    3.3961    5.6202
    4.2309    2.8899    5.5934
    5.4184    2.4888    3.4454
    4.2711    2.6321    1.3103
    2.8487    3.9741   -0.3519
    1.1343    3.9747   -0.8165
    1.7963   -0.6201   -0.6025
    1.5215   -0.0757   -2.2717
   -3.3445   -2.1380   -3.3809
   -4.2096   -2.3757   -1.8468
   -1.9455   -3.9249   -4.3290
   -1.4502   -6.3348   -4.4205
   -2.2383   -7.8431   -2.6095
   -3.5173   -6.9097   -0.7063
   -4.0209   -4.4967   -0.6093
@<BUDE>CONF  5
   -4.1389    2.7449   -0.8083
   -2.9365    2.5064    0.0733
   -2.9377    2.4754    1.4130
   -1.5257    2.2226    1.8626
   -0.8899    2.1130    3.1050
    0.4780    1.8155    3.0802
    1.1444    1.5977    1.8672
    0.4880    1.7016    0.6349
   -0.8610    2.0760    0.6391
   -1.7153    2.3095   -0.3800
   -1.3296    2.3090   -1.8076
   -1.1972    0.8856   -2.2936
   -0.1262    0.4595   -2.6089
   -2.2889    0.0951   -2.3716
   -2.1143   -1.2455   -2.8376
   -1.2230   -1.9985   -1.8791
   -0.0252   -2.5474   -1.9584
    0.3187   -3.1200   -0.7279
   -0.6474   -2.9408    0.0924
   -1.6584   -2.2426   -0.5786
    1.6183   -3.8188   -0.4076
    2.5953   -2.8227    0.1700
    3.4667   -2.1152   -0.6666
    4.3582   -1.1751   -0.1359
    4.4023   -0.9494    1.2416
    3.5415   -1.6613    2.0856
    2.6500   -2.5992    1.5509
   -4.4076    2.6857    2.5659
   -4.2894    1.8838   -1.4559
   -3.9720    3.6317   -1.4160
   -5.0201    2.8906   -0.1871
   -1.4026    2.2438    4.0466
    1.0048    1.7376    4.0198
    2.1923    1.3365    1.8718
    1.0450    1.4798   -0.2633
   -0.3774    2.8218   -1.9255
   -2.0918    2.8224   -2.3901
   -1.6553   -1.2291   -3.8239
   -3.0829   -1.7375   -2.8957
    2.0324   -4.2480   -1.3176
    1.4351   -4.6098    0.3166
    3.4632   -2.2909   -1.7321
    5.0221   -0.6330   -0.7929
    5.0860   -0.2243    1.6576
    3.5675   -1.4862    3.1510
    2.0052   -3.1520    2.2180
@<BUDE>CONF  6
   -3.5952    3.9416   -0.4038
   -2.3928    3.7031    0.4778
   -2.3940    3.6721    1.8175
   -0.9820    3.4193    2.2671
   -0.3462    3.3097    3.5095
    1.0217    3.0122    3.4847
    1.6881    2.7944    2.2717
    1.0317    2.8983    1.0394
   -0.3173    3.2727    1.0436
   -1.1716    3.5062    0.0245
   -0.7859    3.5057   -1.4031
   -0.6535    2.0823   -1.8891
    0.4175    1.6562   -2.2044
   -1.7452    1.2918   -1.9671
   -1.5706   -0.0488   -2.4331
   -0.6793   -0.8018   -1.4746
    0.5185   -1.3507   -1.5539
    0.8624   -1.9233   -0.3234
   -0.1037   -1.7441    0.4969
   -1.1147   -1.0459   -0.1741
    2.1620   -2.6221   -0.0031
    2.0141   -4.1021   -0.2634
    1.5853   -4.9631    0.7539
    1.4262   -6.3323    0.5091
    1.7164   -6.8582   -0.7517
    2.1563   -6.0051   -1.7708
    2.3123   -4.6360   -1.5227
   -3.8639    3.8824    2.9704
   -3.7457    3.0805   -1.0514
   -3.4283    4.8284   -1.0115
   -4.4764    4.0873    0.2174
   -0.8589    3.4405    4.4511
    1.5485    2.9343    4.4243
    2.7360    2.5332    2.2763
    1.5887    2.6765    0.1412
    0.1663    4.0185   -1.5210
   -1.5481    4.0191   -1.9856
   -1.1116   -0.0324   -3.4194
   -2.5392   -0.5408   -2.4912
    2.4116   -2.4604    1.0435
    2.9537   -2.2200   -0.6318
    1.3765   -4.5794    1.7416
    1.0906   -6.9848    1.3016
    1.5940   -7.9131   -0.9480
    2.3764   -6.4057   -2.7493
    2.6691   -3.9949   -2.3153
@<BUDE>CONF  7
    3.9950    2.7634    1.4146
    2.5154    2.5062    1.5717
    1.8521    2.4156    2.7324
    0.4097    2.1404    2.4109
   -0.7460    1.9193    3.1694
   -1.9363    1.7433    2.4535
   -1.9543    1.8337    1.0555
   -0.7888    2.0661    0.3153
    0.4220    2.1654    1.0112
    1.6862    2.3233    0.5644
    2.0719    2.3228   -0.8632
    2.2043    0.8994   -1.3492
    1.4477    0.4765   -2.1718
    3.1774    0.1053   -0.8541
    3.2636   -1.2352   -1.3446
    2.0033   -1.9844   -0.9834
    1.0072   -2.5145   -1.6684
    0.0901   -3.1082   -0.7929
    0.5011   -2.9408    0.4077
    1.7054   -2.2287    0.3553
   -1.1682   -3.8419   -1.1910
   -2.3289   -2.8762   -1.2080
   -3.1034   -2.6759   -0.0591
   -4.1663   -1.7648   -0.0658
   -4.4795   -1.0604   -1.2304
   -3.7164   -1.2636   -2.3863
   -2.6529   -2.1742   -2.3751
    2.5449    2.6063    4.4696
    4.1449    3.6797    0.8475
    4.4532    1.9301    0.8862
    4.4510    2.8656    2.3971
   -0.7485    1.8836    4.2489
   -2.8456    1.5561    3.0051
   -2.8888    1.7279    0.5245
   -0.8736    2.1685   -0.7564
    3.0241    2.8356   -0.9811
    1.3097    2.8362   -1.4457
    4.1220   -1.7305   -0.8956
    3.3787   -1.2182   -2.4263
   -1.3665   -4.6358   -0.4740
   -1.0385   -4.2715   -2.1822
   -2.8910   -3.2268    0.8451
   -4.7532   -1.6166    0.8286
   -5.2968   -0.3545   -1.2420
   -3.9506   -0.7170   -3.2878
   -2.0854   -2.3316   -3.2804
@<BUDE>CONF  8
    3.2888    3.9419    1.4746
    1.8092    3.6847    1.6316
    1.1459    3.5941    2.7923
   -0.2965    3.3189    2.4708
   -1.4522    3.0978    3.2294
   -2.6425    2.9218    2.5134
   -2.6605    3.0122    1.1154
   -1.4950    3.2446    0.3752
   -0.2842    3.3439    1.0711
    0.9800    3.5018    0.6243
    1.3657    3.5013   -0.8033
    1.4981    2.0779   -1.2893
    0.7415    1.6550   -2.1119
    2.4712    1.2838   -0.7941
    2.5574   -0.0567   -1.2846
    1.2971   -0.8059   -0.9235
    0.3010   -1.3360   -1.6085
   -0.6161   -1.9297   -0.7330
   -0.2051   -1.7623    0.4676
    0.9992   -1.0502    0.4152
   -1.8744   -2.6634   -1.1310
   -1.5739   -4.1365   -1.2713
   -1.1701   -4.6653   -2.5031
   -0.8697   -6.0267   -2.6305
   -0.9921   -6.8783   -1.5304
   -1.4060   -6.3588   -0.2981
   -1.7037   -4.9964   -0.1741
    1.8387    3.7848    4.5296
    3.4387    4.8582    0.9074
    3.7470    3.1086    0.9461
    3.7448    4.0441    2.4570
   -1.4547    3.0621    4.3088
   -3.5518    2.7346    3.0651
   -3.5950    2.9064    0.5844
   -1.5798    3.3470   -0.6964
    2.3179    4.0141   -0.9212
    0.6035    4.0147   -1.3857
    3.4158   -0.5520   -0.8357
    2.6725   -0.0397   -2.3664
   -2.2353   -2.2742   -2.0809
   -2.6349   -2.5189   -0.3666
   -1.0902   -4.0274   -3.3709
   -0.5551   -6.4209   -3.5854
   -0.7600   -7.9292   -1.6211
   -1.4966   -7.0120    0.5572
   -2.0382   -4.6155    0.7795
@<BUDE>CONF  9
   -3.6655    1.8254    2.1107
   -2.4631    1.5869    2.9923
   -2.4643    1.5559    4.3320
   -1.0523    1.3031    4.7816
   -0.4165    1.1935    6.0240
    0.9514    0.8960    5.9992
    1.6178    0.6782    4.7862
    0.9614    0.7821    3.5539
   -0.3876    1.1565    3.5581
   -1.2419    1.3900    2.5390
   -0.8562    1.3895    1.1114
   -0.7238   -0.0339    0.6254
    0.3472   -0.4600    0.3101
   -1.8155   -0.8244    0.5474
   -1.6409   -2.1650    0.0814
   -1.1420   -2.1407   -1.3436
   -0.0238   -2.5029   -1.9443
   -0.1186   -2.2521   -3.3184
   -1.2639   -1.7358   -3.5634
   -1.9576   -1.6319   -2.3518
    0.9421   -2.5539   -4.3498
    1.8219   -1.3407   -4.5356
    1.5074   -0.3760   -5.5002
    2.3091    0.7606   -5.6595
    3.4478    0.9326   -4.8693
    3.7747   -0.0334   -3.9102
    2.9694   -1.1677   -3.7525
   -3.9342    1.7662    5.4849
   -3.8160    0.9643    1.4631
   -3.4986    2.7122    1.5030
   -4.5467    1.9711    2.7319
   -0.9292    1.3243    6.9656
    1.4782    0.8181    6.9388
    2.6657    0.4170    4.7908
    1.5184    0.5603    2.6557
    0.0960    1.9023    0.9935
   -1.6184    1.9029    0.5289
   -2.5930   -2.6899    0.1241
   -0.9158   -2.6757    0.7115
    0.4664   -2.8060   -5.2953
    1.5470   -3.3929   -4.0123
    0.6434   -0.5013   -6.1359
    2.0528    1.4993   -6.4045
    4.0695    1.8080   -4.9855
    4.6509    0.0978   -3.2925
    3.2457   -1.9115   -3.0198
@<BUDE>CONF  10
    1.5328    3.0482    3.5739
    0.0532    2.7910    3.7310
   -0.6101    2.7004    4.8917
   -2.0525    2.4252    4.5702
   -3.2082    2.2041    5.3287
   -4.3985    2.0281    4.6128
   -4.4165    2.1185    3.2148
   -3.2510    2.3509    2.4746
   -2.0402    2.4502    3.1705
   -0.7760    2.6081    2.7237
   -0.3903    2.6076    1.2961
   -0.2579    1.1842    0.8101
   -1.0145    0.7613   -0.0125
    0.7152    0.3901    1.3052
    0.8014   -0.9504    0.8147
    1.1084   -0.9257   -0.6636
    0.4656   -1.3007   -1.7538
    1.2449   -1.0267   -2.8841
    2.3500   -0.5046   -2.5041
    2.3286   -0.4205   -1.1067
    0.8482   -1.2843   -4.3181
    1.3340   -2.6516   -4.7359
    2.5986   -2.8098   -5.3156
    3.0603   -4.0792   -5.6836
    2.2512   -5.2020   -5.4958
    0.9811   -5.0500   -4.9269
    0.5236   -3.7792   -4.5583
    0.0827    2.8911    6.6289
    1.6827    3.9645    3.0068
    1.9910    2.2149    3.0455
    1.9888    3.1504    4.5564
   -3.2107    2.1684    6.4082
   -5.3078    1.8409    5.1644
   -5.3510    2.0127    2.6838
   -3.3358    2.4533    1.4029
    0.5619    3.1204    1.1782
   -1.1525    3.1210    0.7136
   -0.1465   -1.4582    0.9805
    1.5935   -1.4784    1.3415
    1.2962   -0.5279   -4.9591
   -0.2353   -1.2408   -4.4073
    3.2306   -1.9515   -5.4891
    4.0395   -4.1878   -6.1258
    2.6019   -6.1844   -5.7755
    0.3538   -5.9159   -4.7740
   -0.4655   -3.6779   -4.1368
