@<TRIPOS>MOLECULE
ZINC61580633
   58    59     0     0     0
SMALL
USER_CHARGES

@<TRIPOS>ATOM
      1 C1          6.9961    3.8607    4.4285 C.3       1 <0>        -0.1532
      2 C2          7.0169    2.3308    4.4201 C.3       1 <0>        -0.1224
      3 C3          5.5815    1.8013    4.4310 C.3       1 <0>        -0.1198
      4 C4          5.6022    0.2714    4.4226 C.3       1 <0>         0.0610
      5 O1          4.2616   -0.2232    4.4327 O.3       1 <0>        -0.3878
      6 C5          4.1681   -1.6491    4.4259 C.3       1 <0>         0.0487
      7 C6          2.6954   -2.0637    4.4378 C.3       1 <0>         0.1244
      8 N1          2.0553   -1.6274    3.1944 N.am      1 <0>        -0.7216
      9 C7          0.7495   -1.8851    2.9822 C.2       1 <0>         0.5161
     10 O2          0.1044   -2.4782    3.8207 O.2       1 <0>        -0.5151
     11 C8          0.0910   -1.4363    1.7031 C.3       1 <0>         0.0490
     12 O3         -1.2845   -1.8236    1.7142 O.3       1 <0>        -0.3194
     13 C9         -2.0219   -1.4947    0.6337 C.2       1 <0>         0.5417
     14 O4         -1.5099   -0.8952   -0.2926 O.2       1 <0>        -0.5337
     15 C10        -3.4388   -1.8594    0.5758 C.2       1 <0>        -0.2559
     16 C11        -4.0869   -2.5663    1.6573 C.2       1 <0>        -0.0791
     17 C12        -5.3919   -2.8416    1.4796 C.2       1 <0>        -0.2585
     18 S1         -5.7412   -2.1563   -0.1249 S.3       1 <0>         0.3028
     19 C13        -4.2315   -1.5391   -0.5184 C.2       1 <0>         0.0893
     20 N2         -3.8604   -0.8670   -1.6710 N.am      1 <0>        -0.6099
     21 C14        -4.7685   -0.6402   -2.6408 C.2       1 <0>         0.5551
     22 O5         -5.9132   -1.0256   -2.5038 O.2       1 <0>        -0.4939
     23 C15        -4.3725    0.0771   -3.8708 C.ar      1 <0>        -0.1466
     24 C16        -3.0573    0.5159   -4.0339 C.ar      1 <0>        -0.0772
     25 C17        -2.6943    1.1844   -5.1847 C.ar      1 <0>        -0.1241
     26 C18        -3.6303    1.4202   -6.1761 C.ar      1 <0>        -0.0446
     27 C19        -4.9356    0.9883   -6.0206 C.ar      1 <0>        -0.1261
     28 C20        -5.3106    0.3136   -4.8773 C.ar      1 <0>        -0.0460
     29 C21        -3.2264    2.1511   -7.4305 C.3       1 <0>        -0.0928
     30 C22        -2.7477    1.1425   -8.4767 C.3       1 <0>        -0.1485
     31 H1          8.0187    4.2380    4.4208 H         1 <0>         0.0567
     32 H2          6.4689    4.2217    3.5455 H         1 <0>         0.0554
     33 H3          6.4859    4.2122    5.3253 H         1 <0>         0.0557
     34 H4          7.5271    1.9793    3.5233 H         1 <0>         0.0632
     35 H5          7.5441    1.9698    5.3032 H         1 <0>         0.0635
     36 H6          5.0713    2.1528    5.3278 H         1 <0>         0.0711
     37 H7          5.0543    2.1623    3.5479 H         1 <0>         0.0704
     38 H8          6.1124   -0.0801    3.5258 H         1 <0>         0.0498
     39 H9          6.1294   -0.0897    5.3056 H         1 <0>         0.0505
     40 H10         4.6485   -2.0405    3.5292 H         1 <0>         0.0584
     41 H11         4.6655   -2.0501    5.3091 H         1 <0>         0.0702
     42 H12         2.6239   -3.1481    4.5222 H         1 <0>         0.0872
     43 H13         2.1940   -1.5993    5.2869 H         1 <0>         0.0805
     44 H14         2.5712   -1.1531    2.5237 H         1 <0>         0.4058
     45 H15         0.1625   -0.3520    1.6187 H         1 <0>         0.1008
     46 H16         0.5924   -1.9007    0.8540 H         1 <0>         0.0999
     47 H17        -3.5565   -2.8559    2.5524 H         1 <0>         0.1557
     48 H18        -6.0654   -3.3553    2.1496 H         1 <0>         0.1929
     49 H19        -2.9470   -0.5595   -1.7804 H         1 <0>         0.4317
     50 H20        -2.3259    0.3328   -3.2607 H         1 <0>         0.1287
     51 H21        -1.6773    1.5248   -5.3120 H         1 <0>         0.1326
     52 H22        -5.6615    1.1762   -6.7979 H         1 <0>         0.1342
     53 H23        -6.3287   -0.0269   -4.7591 H         1 <0>         0.1410
     54 H24        -4.0819    2.7019   -7.8215 H         1 <0>         0.0777
     55 H25        -2.4198    2.8476   -7.2015 H         1 <0>         0.0771
     56 H26        -2.4556    1.6712   -9.3840 H         1 <0>         0.0623
     57 H27        -1.8922    0.5918   -8.0857 H         1 <0>         0.0572
     58 H28        -3.5543    0.4461   -8.7057 H         1 <0>         0.0578
@<TRIPOS>BOND
     1    1    2 1
     2    1   31 1
     3    1   32 1
     4    1   33 1
     5    2    3 1
     6    2   34 1
     7    2   35 1
     8    3    4 1
     9    3   36 1
    10    3   37 1
    11    4    5 1
    12    4   38 1
    13    4   39 1
    14    5    6 1
    15    6    7 1
    16    6   40 1
    17    6   41 1
    18    7    8 1
    19    7   42 1
    20    7   43 1
    21    8    9 am
    22    8   44 1
    23    9   10 2
    24    9   11 1
    25   11   12 1
    26   11   45 1
    27   11   46 1
    28   12   13 1
    29   13   14 2
    30   13   15 1
    31   15   19 2
    32   15   16 1
    33   16   17 2
    34   16   47 1
    35   17   18 1
    36   17   48 1
    37   18   19 1
    38   19   20 1
    39   20   21 am
    40   20   49 1
    41   21   22 2
    42   21   23 1
    43   23   28 ar
    44   23   24 ar
    45   24   25 ar
    46   24   50 1
    47   25   26 ar
    48   25   51 1
    49   26   27 ar
    50   26   29 1
    51   27   28 ar
    52   27   52 1
    53   28   53 1
    54   29   30 1
    55   29   54 1
    56   29   55 1
    57   30   56 1
    58   30   57 1
    59   30   58 1
@<BUDE>CONF  1
    0.2003    3.2383   -4.5840
    0.9899    3.3663   -3.2845
    0.3526    4.4422   -2.4062
    1.1432    4.5704   -1.1049
    1.0694    3.3399   -0.3801
    1.7936    3.4004    0.8514
    1.6767    2.0606    1.5764
    0.3138    1.9079    2.1054
   -0.0806    2.6362    3.1461
    0.6943    3.4372    3.6662
   -1.4807    2.4794    3.6895
   -1.6053    1.2032    4.3224
   -1.4550    0.1002    3.5587
   -1.2203    0.2101    2.3665
   -1.5749   -1.2431    4.1679
   -1.8434   -1.4899    5.6023
   -1.8898   -2.7917    5.8945
   -1.6225   -3.8191    4.4784
   -1.4372   -2.3776    3.4683
   -1.1725   -2.3782    2.1241
   -1.0439   -3.5298    1.4713
   -1.1628   -4.5950    2.0747
   -0.7580   -3.5287    0.0192
   -0.6274   -4.7635   -0.6276
   -0.2847   -4.8275   -1.9834
   -0.0560   -3.6568   -2.7158
   -0.2378   -2.4200   -2.0855
   -0.6091   -2.3600   -0.7370
    0.3733   -3.7485   -4.1607
    1.8969   -3.7855   -4.2363
    0.2232    4.1869   -5.1164
   -0.8303    2.9740   -4.3569
    0.6461    2.4630   -5.2035
    0.9783    2.4148   -2.7571
    2.0174    3.6445   -3.5094
    0.3643    5.3944   -2.9321
   -0.6748    4.1647   -2.1798
    2.1833    4.7948   -1.3323
    0.7221    5.3718   -0.5015
    1.3803    4.1882    1.4777
    2.8413    3.6112    0.6468
    2.3895    2.0285    2.3977
    1.8877    1.2514    0.8805
   -0.3234    1.2504    1.6791
   -1.6785    3.2646    4.4161
   -2.1970    2.5504    2.8737
   -1.9939   -0.6908    6.3130
   -2.0841   -3.1614    6.8904
   -1.0749   -1.5036    1.6286
   -0.7878   -5.6779   -0.0758
   -0.1929   -5.7856   -2.4732
   -0.0916   -1.5140   -2.6549
   -0.7923   -1.3803   -0.3211
    0.0035   -2.8814   -4.7039
   -0.0346   -4.6551   -4.6027
    2.2647   -4.6598   -3.7034
    2.3040   -2.8849   -3.7813
    2.2064   -3.8381   -5.2780
@<BUDE>CONF  2
    7.2902    1.6250    1.2178
    5.9012    1.4355    1.8205
    4.8541    2.0361    0.8835
    3.4632    1.8463    1.4871
    2.4833    2.4083    0.6102
    1.1574    2.2598    1.1248
    0.1600    2.8780    0.1461
   -1.2029    2.7253    0.6751
   -1.5973    3.4536    1.7158
   -0.8224    4.2546    2.2359
   -2.9974    3.2968    2.2592
   -3.1220    2.0206    2.8921
   -2.9717    0.9176    2.1284
   -2.7370    1.0275    0.9362
   -3.0916   -0.4257    2.7376
   -3.3601   -0.6725    4.1720
   -3.4065   -1.9743    4.4642
   -3.1392   -3.0017    3.0481
   -2.9539   -1.5602    2.0380
   -2.6892   -1.5608    0.6938
   -2.5606   -2.7124    0.0410
   -2.6795   -3.7776    0.6444
   -2.2747   -2.7113   -1.4111
   -2.1441   -3.9461   -2.0579
   -1.8014   -4.0101   -3.4137
   -1.5727   -2.8394   -4.1461
   -1.7545   -1.6026   -3.5158
   -2.1258   -1.5426   -2.1673
   -1.1434   -2.9311   -5.5910
    0.3802   -2.9681   -5.6666
    7.4915    2.6877    1.0994
    7.3331    1.1368    0.2465
    8.0345    1.1856    1.8785
    5.7036    0.3736    1.9510
    5.8525    1.9354    2.7857
    5.0501    3.0981    0.7528
    4.9012    1.5363   -0.0818
    3.2656    0.7844    1.6176
    3.4147    2.3463    2.4522
    1.0819    2.7645    2.0857
    0.9329    1.2027    1.2511
    0.2339    2.3735   -0.8149
    0.3830    3.9353    0.0196
   -1.8401    2.0678    0.2488
   -3.1952    4.0820    2.9858
   -3.7137    3.3678    1.4434
   -3.5106    0.1266    4.8827
   -3.6008   -2.3440    5.4601
   -2.5916   -0.6862    0.1983
   -2.3045   -4.8605   -1.5061
   -1.7096   -4.9682   -3.9035
   -1.6083   -0.6966   -4.0852
   -2.3090   -0.5629   -1.7514
   -1.5132   -2.0640   -6.1342
   -1.5513   -3.8377   -6.0330
    0.7480   -3.8424   -5.1337
    0.7873   -2.0675   -5.2116
    0.6897   -3.0207   -6.7083
@<BUDE>CONF  3
    1.2602    3.2383   -4.3753
    0.0370    3.3663   -3.4720
    0.2938    4.4422   -2.4177
   -0.9311    4.5704   -1.5132
   -1.1375    3.3399   -0.8146
   -2.2746    3.4005    0.0505
   -2.4412    2.0606    0.7657
   -1.3805    1.9080    1.7719
   -1.4101    2.6362    2.8844
   -2.3243    3.4371    3.0720
   -0.3204    2.4794    3.9180
   -0.4450    1.2032    4.5509
   -0.2947    0.1002    3.7872
   -0.0600    0.2101    2.5950
   -0.4146   -1.2431    4.3964
   -0.6831   -1.4899    5.8308
   -0.7295   -2.7917    6.1230
   -0.4622   -3.8191    4.7069
   -0.2769   -2.3776    3.6968
   -0.0122   -2.3782    2.3526
    0.1164   -3.5298    1.6998
   -0.0025   -4.5950    2.3032
    0.4023   -3.5287    0.2477
    0.5329   -4.7635   -0.3991
    0.8756   -4.8275   -1.7549
    1.1043   -3.6568   -2.4873
    0.9225   -2.4200   -1.8570
    0.5512   -2.3600   -0.5085
    1.5336   -3.7485   -3.9322
    3.0572   -3.7855   -4.0078
    2.1223    2.9479   -3.7783
    1.4568    4.1942   -4.8561
    1.0723    2.4818   -5.1342
   -0.8285    3.6445   -4.0698
   -0.1523    2.4148   -2.9796
    1.1586    4.1648   -1.8188
    0.4824    5.3945   -2.9090
   -0.7702    5.3718   -0.7952
   -1.8073    4.7947   -2.1180
   -3.1664    3.6113   -0.5358
   -2.1293    4.1882    0.7868
   -2.3726    1.2514    0.0418
   -3.4121    2.0286    1.2556
   -0.6292    1.2505    1.6189
    0.6517    2.5504    3.4347
   -0.4129    3.2646    4.6653
   -0.8336   -0.6908    6.5415
   -0.9238   -3.1614    7.1189
    0.0854   -1.5036    1.8571
    0.3725   -5.6779    0.1527
    0.9674   -5.7856   -2.2447
    1.0687   -1.5140   -2.4264
    0.3680   -1.3803   -0.0926
    1.1638   -2.8814   -4.4754
    1.1257   -4.6551   -4.3742
    3.4250   -4.6598   -3.4749
    3.4643   -2.8849   -3.5528
    3.3667   -3.8381   -5.0495
@<BUDE>CONF  4
   -0.2953   10.1276    4.8605
   -0.0797    9.0728    3.7791
   -0.2556    7.6808    4.3844
   -0.0397    6.6245    3.3016
   -0.2043    5.3219    3.8680
   -0.0133    4.2889    2.8978
   -0.2018    2.9260    3.5623
   -0.0054    1.8642    2.5650
   -0.9215    1.6599    1.6226
   -1.9328    2.3588    1.5851
   -0.7198    0.5691    0.5981
   -0.8444   -0.7071    1.2310
   -0.6941   -1.8101    0.4673
   -0.4594   -1.7002   -0.7249
   -0.8140   -3.1534    1.0765
   -1.0825   -3.4002    2.5109
   -1.1289   -4.7020    2.8031
   -0.8616   -5.7294    1.3870
   -0.6763   -4.2879    0.3769
   -0.4116   -4.2885   -0.9673
   -0.2830   -5.4401   -1.6201
   -0.4019   -6.5053   -1.0167
    0.0029   -5.4390   -3.0722
    0.1335   -6.6738   -3.7190
    0.4762   -6.7378   -5.0748
    0.7049   -5.5671   -5.8072
    0.5231   -4.3303   -5.1769
    0.1518   -4.2703   -3.8284
    1.1342   -5.6588   -7.2521
    2.6578   -5.6958   -7.3277
    0.4401    9.9916    5.6507
   -1.2961   10.0230    5.2739
   -0.1832   11.1190    4.4266
   -0.8066    9.2155    2.9823
    0.9259    9.1672    3.3747
    0.4713    7.5365    5.1809
   -1.2612    7.5848    4.7884
   -0.7666    6.7673    2.5047
    0.9660    6.7191    2.8973
    0.9926    4.3561    2.4886
   -0.7399    4.4044    2.0962
   -1.2076    2.8572    3.9711
    0.5249    2.8090    4.3635
    0.8247    1.2896    2.5948
   -1.4716    0.6607   -0.1830
    0.2720    0.6608    0.1604
   -1.2330   -2.6011    3.2216
   -1.3232   -5.0717    3.7990
   -0.3140   -3.4139   -1.4628
   -0.0269   -7.5882   -3.1672
    0.5680   -7.6959   -5.5646
    0.6693   -3.4243   -5.7463
   -0.0314   -3.2906   -3.4125
    0.7644   -4.7917   -7.7953
    0.7263   -6.5654   -7.6941
    3.0256   -6.5701   -6.7948
    3.0649   -4.7952   -6.8727
    2.9673   -5.7484   -8.3694
@<BUDE>CONF  5
   -3.1491    8.7666    5.6281
   -2.9387    7.7118    4.5457
   -1.5407    7.8675    3.9489
   -1.3300    6.8112    2.8650
   -1.3924    5.5086    3.4516
   -1.2014    4.4756    2.4813
   -1.2789    3.1127    3.1677
   -1.0826    2.0509    2.1704
    0.1224    1.8466    1.6456
    1.0724    2.5454    1.9944
    0.3241    0.7558    0.6211
    0.1995   -0.5204    1.2540
    0.3498   -1.6234    0.4903
    0.5845   -1.5135   -0.7019
    0.2299   -2.9667    1.0995
   -0.0386   -3.2135    2.5339
   -0.0850   -4.5153    2.8261
    0.1823   -5.5427    1.4100
    0.3676   -4.1012    0.3999
    0.6323   -4.1018   -0.9443
    0.7609   -5.2534   -1.5971
    0.6420   -6.3186   -0.9937
    1.0468   -5.2523   -3.0492
    1.1774   -6.4871   -3.6960
    1.5201   -6.5511   -5.0518
    1.7488   -5.3804   -5.7842
    1.5670   -4.1436   -5.1539
    1.1957   -4.0836   -3.8054
    2.1781   -5.4721   -7.2291
    3.7017   -5.5091   -7.3047
   -3.0620    9.7582    5.1890
   -2.3955    8.6451    6.4033
   -4.1395    8.6472    6.0623
   -3.0380    6.7196    4.9811
   -3.6831    7.8410    3.7628
   -1.4404    8.8590    3.5125
   -0.7954    7.7376    4.7308
   -2.1073    6.9057    2.1096
   -0.3552    6.9540    2.4033
   -0.2253    4.5911    2.0150
   -1.9772    4.5429    1.7215
   -2.2550    2.9957    3.6337
   -0.5030    3.0439    3.9273
   -1.8620    1.4764    1.8832
   -0.4277    0.8474   -0.1600
    1.3159    0.8475    0.1834
   -0.1891   -2.4144    3.2446
   -0.2793   -4.8850    3.8220
    0.7299   -3.2272   -1.4398
    1.0170   -7.4015   -3.1442
    1.6119   -7.5092   -5.5416
    1.7132   -3.2376   -5.7233
    1.0125   -3.1039   -3.3895
    1.8083   -4.6050   -7.7723
    1.7702   -6.3787   -7.6711
    4.0695   -6.3834   -6.7718
    4.1088   -4.6085   -6.8497
    4.0112   -5.5617   -8.3464
@<BUDE>CONF  6
   -6.8609    2.0801   -2.1802
   -5.7543    1.8572   -1.1535
   -4.4622    1.4742   -1.8737
   -3.3540    1.2509   -0.8456
   -3.0986    2.4730   -0.1484
   -2.0667    2.3245    0.8305
   -1.8415    3.6597    1.5384
   -0.7808    3.5071    2.5445
    0.4846    3.3664    2.1600
    0.7679    3.3640    0.9632
    1.5743    3.2096    3.1936
    1.4497    1.9334    3.8265
    1.6000    0.8304    3.0628
    1.8347    0.9403    1.8706
    1.4801   -0.5129    3.6720
    1.2116   -0.7597    5.1064
    1.1652   -2.0615    5.3986
    1.4325   -3.0889    3.9825
    1.6178   -1.6474    2.9724
    1.8825   -1.6480    1.6282
    2.0111   -2.7996    0.9754
    1.8922   -3.8648    1.5788
    2.2970   -2.7985   -0.4767
    2.4276   -4.0333   -1.1235
    2.7703   -4.0973   -2.4793
    2.9990   -2.9266   -3.2117
    2.8172   -1.6898   -2.5814
    2.4459   -1.6298   -1.2329
    3.4283   -3.0183   -4.6566
    4.9519   -3.0553   -4.7322
   -7.0277    1.1610   -2.7381
   -6.5652    2.8721   -2.8650
   -7.7774    2.3659   -1.6683
   -5.5951    2.7720   -0.5864
   -6.0426    1.0557   -0.4766
   -4.6197    0.5591   -2.4406
   -4.1722    2.2754   -2.5503
   -3.6653    0.4874   -0.1358
   -2.4476    0.9274   -1.3531
   -1.1452    2.0134    0.3427
   -2.3631    1.5735    1.5598
   -2.7621    3.9714    2.0273
   -1.5443    4.4113    0.8102
   -1.0123    3.5089    3.5276
    2.5464    3.2806    2.7103
    1.4818    3.9948    3.9409
    1.0611    0.0394    5.8171
    0.9709   -2.4312    6.3945
    1.9801   -0.7734    1.1327
    2.2672   -4.9477   -0.5717
    2.8621   -5.0554   -2.9691
    2.9634   -0.7838   -3.1508
    2.2627   -0.6501   -0.8170
    3.0585   -2.1512   -5.1998
    3.0204   -3.9249   -5.0986
    5.3197   -3.9296   -4.1993
    5.3590   -2.1547   -4.2772
    5.2614   -3.1079   -5.7739
@<BUDE>CONF  7
   -0.1211    6.5032   -2.5017
    0.4864    5.3825   -3.3406
    0.4075    4.0677   -2.5661
    1.1981    4.1959   -1.2648
    1.1243    2.9654   -0.5400
    1.8485    3.0259    0.6915
    1.7316    1.6861    1.4165
    0.3687    1.5334    1.9455
   -0.0257    2.2617    2.9862
    0.7492    3.0627    3.5063
   -1.4258    2.1049    3.5296
   -1.5504    0.8287    4.1625
   -1.4001   -0.2743    3.3988
   -1.1654   -0.1644    2.2066
   -1.5200   -1.6176    4.0080
   -1.7885   -1.8644    5.4424
   -1.8349   -3.1662    5.7346
   -1.5676   -4.1936    4.3185
   -1.3823   -2.7521    3.3084
   -1.1176   -2.7527    1.9642
   -0.9890   -3.9043    1.3114
   -1.1079   -4.9695    1.9148
   -0.7031   -3.9032   -0.1407
   -0.5725   -5.1380   -0.7875
   -0.2298   -5.2020   -2.1433
   -0.0011   -4.0313   -2.8757
   -0.1829   -2.7945   -2.2454
   -0.5542   -2.7345   -0.8969
    0.4282   -4.1230   -4.3206
    1.9518   -4.1600   -4.3962
    0.4393    6.6061   -1.5748
   -1.1578    6.2641   -2.2746
   -0.0771    7.4368   -3.0585
   -0.0655    5.2870   -4.2734
    1.5274    5.6136   -3.5565
   -0.6320    3.8425   -2.3375
    0.8290    3.2655   -3.1683
    2.2382    4.4203   -1.4922
    0.7770    4.9973   -0.6614
    1.4352    3.8137    1.3178
    2.8962    3.2367    0.4869
    2.4444    1.6540    2.2378
    1.9426    0.8769    0.7206
   -0.2685    0.8759    1.5192
   -1.6236    2.8901    4.2562
   -2.1421    2.1759    2.7138
   -1.9390   -1.0653    6.1531
   -2.0292   -3.5359    6.7305
   -1.0200   -1.8781    1.4687
   -0.7329   -6.0524   -0.2357
   -0.1380   -6.1601   -2.6331
   -0.0367   -1.8885   -2.8148
   -0.7374   -1.7548   -0.4810
    0.0584   -3.2559   -4.8638
    0.0203   -5.0296   -4.7626
    2.3196   -5.0343   -3.8633
    2.3589   -3.2594   -3.9412
    2.2613   -4.2126   -5.4379
@<BUDE>CONF  8
   -2.2441   -2.7580   -4.1532
   -2.7816   -1.4052   -3.6956
   -1.9366   -0.8898   -2.5314
   -2.4748    0.4649   -2.0731
   -1.6841    0.9472   -0.9837
   -2.1426    2.2166   -0.5110
   -1.2602    2.6763    0.6486
    0.0580    3.0727    0.1330
    0.9949    3.5098    0.9697
    2.0983    3.8418    0.5396
    0.7037    3.5985    2.4487
    0.5966    2.2803    2.9925
    0.3369    2.1587    4.3117
    0.2011    3.1555    5.0019
    0.2170    0.8154    4.9209
   -0.0515    0.5686    6.3553
   -0.0979   -0.7332    6.6475
    0.1694   -1.7606    5.2314
    0.3547   -0.3191    4.2213
    0.6194   -0.3197    2.8771
    0.7480   -1.4713    2.2243
    0.6291   -2.5365    2.8277
    1.0339   -1.4702    0.7722
    1.1645   -2.7050    0.1254
    1.5072   -2.7690   -1.2304
    1.7359   -1.5983   -1.9628
    1.5541   -0.3615   -1.3325
    1.1828   -0.3015    0.0160
    2.1652   -1.6900   -3.4077
    3.6888   -1.7270   -3.4833
   -2.3055   -3.4687   -3.3317
   -1.2068   -2.6495   -4.4628
   -2.8374   -3.1187   -4.9908
   -2.7323   -0.6969   -4.5200
   -3.8146   -1.5151   -3.3723
   -1.9856   -1.5968   -1.7060
   -0.9034   -0.7786   -2.8538
   -2.4256    1.1732   -2.8976
   -3.5078    0.3548   -1.7498
   -3.1717    2.1271   -0.1695
   -2.0894    2.9453   -1.3173
   -1.1408    1.8613    1.3594
   -1.7254    3.5257    1.1444
    0.2528    3.0134   -0.8563
    1.5112    4.1311    2.9467
   -0.2323    4.1311    2.6033
   -0.2020    1.3677    7.0660
   -0.2922   -1.1029    7.6434
    0.7170    0.5549    2.3816
    1.0041   -3.6194    0.6772
    1.5990   -3.7271   -1.7202
    1.7003    0.5445   -1.9019
    0.9996    0.6782    0.4319
    1.7954   -0.8229   -3.9509
    1.7573   -2.5966   -3.8497
    4.0566   -2.6013   -2.9504
    4.0959   -0.8264   -3.0283
    3.9983   -1.7796   -4.5250
@<BUDE>CONF  9
    0.4440    0.7478    7.6013
    0.4008    2.0765    6.8522
    0.7213    1.8392    5.3771
    0.6780    3.1698    4.6270
    0.9779    2.9477    3.2466
    0.9521    4.1620    2.4917
    1.2792    3.8592    1.0303
    0.1428    3.1644    0.4085
    0.2049    2.8004   -0.8693
    1.2125    3.0445   -1.5309
   -0.9625    2.0866   -1.5080
   -1.0696    0.7684   -0.9642
   -1.3293    0.6468    0.3550
   -1.4651    1.6436    1.0452
   -1.4492   -0.6965    0.9642
   -1.7177   -0.9433    2.3986
   -1.7641   -2.2451    2.6908
   -1.4968   -3.2725    1.2747
   -1.3115   -1.8310    0.2646
   -1.0468   -1.8316   -1.0796
   -0.9182   -2.9832   -1.7324
   -1.0371   -4.0484   -1.1290
   -0.6323   -2.9821   -3.1845
   -0.5017   -4.2169   -3.8313
   -0.1590   -4.2809   -5.1871
    0.0697   -3.1102   -5.9195
   -0.1121   -1.8734   -5.2892
   -0.4834   -1.8134   -3.9407
    0.4990   -3.2019   -7.3644
    2.0226   -3.2389   -7.4400
    1.4411    0.3197    7.5219
   -0.2809    0.0632    7.1662
    0.2027    0.9148    8.6489
   -0.5924    2.5117    6.9414
    1.1353    2.7574    7.2773
    1.7145    1.4047    5.2865
   -0.0132    1.1592    4.9507
   -0.3152    3.6050    4.7162
    1.4126    3.8505    5.0521
    1.6897    4.8544    2.8919
   -0.0379    4.6088    2.5560
    2.1624    3.2260    0.9794
    1.4685    4.7901    0.5000
   -0.6851    2.9634    0.9508
   -1.8791    2.6369   -1.3065
   -0.8056    2.0232   -2.5827
   -1.8682   -0.1442    3.1093
   -1.9584   -2.6148    3.6867
   -0.9492   -0.9570   -1.5751
   -0.6621   -5.1313   -3.2795
   -0.0672   -5.2390   -5.6769
    0.0341   -0.9674   -5.8586
   -0.6666   -0.8337   -3.5248
    0.1292   -2.3348   -7.9076
    0.0911   -4.1086   -7.8064
    2.3904   -4.1132   -6.9071
    2.4297   -2.3383   -6.9850
    2.3321   -3.2915   -8.4817
@<BUDE>CONF  10
    0.7685    6.5032   -2.3265
    0.5243    5.3825   -3.3331
    0.3037    4.0677   -2.5865
   -0.9212    4.1959   -1.6820
   -1.1276    2.9654   -0.9834
   -2.2647    3.0260   -0.1183
   -2.4313    1.6861    0.5969
   -1.3706    1.5335    1.6031
   -1.4002    2.2617    2.7156
   -2.3144    3.0626    2.9032
   -0.3105    2.1049    3.7492
   -0.4351    0.8287    4.3821
   -0.2848   -0.2743    3.6184
   -0.0501   -0.1644    2.4262
   -0.4047   -1.6176    4.2276
   -0.6732   -1.8644    5.6620
   -0.7196   -3.1662    5.9542
   -0.4523   -4.1936    4.5381
   -0.2670   -2.7521    3.5280
   -0.0023   -2.7527    2.1838
    0.1263   -3.9043    1.5310
    0.0074   -4.9695    2.1344
    0.4122   -3.9032    0.0789
    0.5428   -5.1380   -0.5679
    0.8855   -5.2020   -1.9237
    1.1142   -4.0313   -2.6561
    0.9324   -2.7945   -2.0258
    0.5611   -2.7345   -0.6773
    1.5435   -4.1230   -4.1010
    3.0671   -4.1600   -4.1766
    1.6573    6.2769   -1.7414
   -0.0904    6.5883   -1.6642
    0.9122    7.4418   -2.8576
   -0.3572    5.6137   -3.9274
    1.3885    5.2869   -3.9871
    0.1420    3.2656   -3.3034
    1.1791    3.8426   -1.9808
   -0.7603    4.9973   -0.9640
   -1.7974    4.4202   -2.2868
   -3.1565    3.2368   -0.7046
   -2.1194    3.8137    0.6180
   -2.3627    0.8769   -0.1270
   -3.4022    1.6541    1.0868
   -0.6193    0.8760    1.4501
    0.6616    2.1759    3.2659
   -0.4030    2.8901    4.4965
   -0.8237   -1.0653    6.3727
   -0.9139   -3.5359    6.9501
    0.0953   -1.8781    1.6883
    0.3824   -6.0524   -0.0161
    0.9773   -6.1601   -2.4135
    1.0786   -1.8885   -2.5952
    0.3779   -1.7548   -0.2614
    1.1737   -3.2559   -4.6442
    1.1356   -5.0296   -4.5430
    3.4349   -5.0343   -3.6437
    3.4742   -3.2594   -3.7216
    3.3766   -4.2126   -5.2183
@<BUDE>CONF  11
   -4.4832    0.0344    4.9774
   -4.1592    1.3631    4.3005
   -2.8744    1.9371    4.8961
   -2.5500    3.2676    4.2184
   -2.3043    3.0455    2.8273
   -1.9942    4.2598    2.1386
   -1.7429    3.9571    0.6622
   -0.4556    3.2622    0.5175
   -0.0288    2.8982   -0.6883
   -0.7103    3.1425   -1.6825
    1.2936    2.1844   -0.8369
    1.1865    0.8662   -0.2931
    0.9268    0.7446    1.0261
    0.7910    1.7414    1.7163
    0.8069   -0.5987    1.6353
    0.5384   -0.8455    3.0697
    0.4920   -2.1473    3.3619
    0.7593   -3.1747    1.9458
    0.9446   -1.7332    0.9357
    1.2093   -1.7338   -0.4085
    1.3379   -2.8854   -1.0613
    1.2190   -3.9506   -0.4579
    1.6238   -2.8843   -2.5134
    1.7544   -4.1191   -3.1602
    2.0971   -4.1831   -4.5160
    2.3258   -3.0124   -5.2484
    2.1440   -1.7756   -4.6181
    1.7727   -1.7156   -3.2696
    2.7551   -3.1041   -6.6933
    4.2787   -3.1411   -6.7689
   -4.6310    0.1974    6.0429
   -3.6585   -0.6591    4.8270
   -5.3906   -0.3808    4.5440
   -4.0235    1.2034    3.2329
   -4.9771    2.0622    4.4622
   -3.0090    2.0979    5.9636
   -2.0556    1.2392    4.7342
   -3.3908    3.9484    4.3333
   -1.6647    3.7027    4.6774
   -1.1025    4.7067    2.5733
   -2.8286    4.9522    2.2292
   -1.7170    4.8880    0.0997
   -2.5410    3.3238    0.2803
    0.1049    3.0611    1.3333
    1.5559    2.1210   -1.8909
    2.0654    2.7347   -0.3029
    0.3879   -0.0464    3.7804
    0.2977   -2.5170    4.3578
    1.3069   -0.8592   -0.9040
    1.5940   -5.0335   -2.6084
    2.1889   -5.1412   -5.0058
    2.2902   -0.8696   -5.1875
    1.5895   -0.7359   -2.8537
    2.3853   -2.2370   -7.2365
    2.3472   -4.0107   -7.1353
    4.6465   -4.0154   -6.2360
    4.6858   -2.2405   -6.3139
    4.5882   -3.1937   -7.8106
@<BUDE>CONF  12
    4.3783    4.4303   -3.0660
    4.1942    4.0152   -1.6092
    4.0496    2.4963   -1.5276
    3.8652    2.0806   -0.0688
    2.6524    2.6447    0.4370
    2.4262    2.2885    1.8033
    1.1200    2.9194    2.2836
   -0.0164    2.2246    1.6618
   -1.2602    2.6071    1.9366
   -1.4602    3.5417    2.7106
   -2.4276    1.8933    1.2979
   -2.5347    0.5751    1.8417
   -2.7944    0.4535    3.1609
   -2.9302    1.4503    3.8511
   -2.9143   -0.8898    3.7701
   -3.1828   -1.1366    5.2045
   -3.2292   -2.4384    5.4967
   -2.9619   -3.4658    4.0806
   -2.7766   -2.0243    3.0705
   -2.5119   -2.0249    1.7263
   -2.3833   -3.1765    1.0735
   -2.5022   -4.2417    1.6769
   -2.0974   -3.1754   -0.3786
   -1.9668   -4.4102   -1.0254
   -1.6241   -4.4742   -2.3812
   -1.3954   -3.3035   -3.1136
   -1.5772   -2.0667   -2.4833
   -1.9485   -2.0067   -1.1348
   -0.9661   -3.3952   -4.5585
    0.5575   -3.4322   -4.6341
    3.5059    4.1280   -3.6416
    5.2654    3.9476   -3.4706
    4.4947    5.5105   -3.1227
    5.0605    4.3281   -1.0300
    3.2994    4.4861   -1.2075
    3.1832    2.1822   -2.1058
    4.9443    2.0242   -1.9282
    3.8147    0.9958   -0.0037
    4.7056    2.4413    0.5206
    3.2497    2.6514    2.4147
    2.3588    1.2061    1.8902
    1.0994    3.9703    2.0028
    1.0503    2.8309    3.3657
    0.1467    1.4570    1.0260
   -3.3442    2.4436    1.4994
   -2.2707    1.8299    0.2232
   -3.3333   -0.3375    5.9152
   -3.4235   -2.8081    6.4926
   -2.4143   -1.1503    1.2308
   -2.1272   -5.3246   -0.4736
   -1.5323   -5.4323   -2.8710
   -1.4310   -1.1607   -3.0527
   -2.1317   -1.0270   -0.7189
   -1.3359   -2.5281   -5.1017
   -1.3740   -4.3018   -5.0005
    0.9253   -4.3065   -4.1012
    0.9646   -2.5316   -4.1791
    0.8670   -3.4848   -5.6758
@<BUDE>CONF  13
   -3.9653    2.5646   -5.3116
   -4.3471    2.1496   -3.8937
   -3.3528    2.7523   -2.9023
   -3.7352    2.3367   -1.4824
   -2.8046    2.9008   -0.5547
   -3.1132    2.5446    0.7955
   -2.0866    3.1754    1.7350
   -0.7993    2.4806    1.5904
    0.2475    2.8631    2.3163
    0.1392    3.7976    3.1084
    1.5699    2.1493    2.1677
    1.4628    0.8311    2.7115
    1.2031    0.7095    4.0307
    1.0673    1.7063    4.7209
    1.0832   -0.6338    4.6399
    0.8147   -0.8806    6.0743
    0.7683   -2.1824    6.3665
    1.0356   -3.2098    4.9504
    1.2209   -1.7683    3.9403
    1.4856   -1.7689    2.5961
    1.6142   -2.9205    1.9433
    1.4953   -3.9857    2.5467
    1.9001   -2.9194    0.4912
    2.0307   -4.1542   -0.1556
    2.3734   -4.2182   -1.5114
    2.6021   -3.0475   -2.2438
    2.4203   -1.8107   -1.6135
    2.0490   -1.7507   -0.2650
    3.0314   -3.1392   -3.6887
    4.5550   -3.1762   -3.7643
   -2.9690    2.1928   -5.5417
   -3.9740    3.6500   -5.3858
   -4.6810    2.1466   -6.0163
   -5.3483    2.5102   -3.6668
   -4.3251    1.0647   -3.8142
   -2.3514    2.3920   -3.1276
   -3.3746    3.8373   -2.9802
   -4.7363    2.6973   -1.2555
   -3.7129    1.2518   -1.4031
   -3.0838    1.4622    0.9015
   -4.1070    2.9076    1.0490
   -2.4322    3.0870    2.7628
   -1.9611    4.2263    1.4830
   -0.7092    1.7130    0.9402
    1.8322    2.0859    1.1137
    2.3417    2.6996    2.7017
    0.6642   -0.0815    6.7850
    0.5740   -2.5521    7.3624
    1.5832   -0.8943    2.1006
    1.8703   -5.0686    0.3962
    2.4652   -5.1763   -2.0012
    2.5665   -0.9047   -2.1829
    1.8658   -0.7710    0.1509
    2.6616   -2.2721   -4.2319
    2.6235   -4.0458   -4.1307
    4.9228   -4.0505   -3.2314
    4.9621   -2.2756   -3.3093
    4.8645   -3.2288   -4.8060
@<BUDE>CONF  14
   -6.0292    3.8774   -0.0868
   -5.5271    3.2458   -1.3820
   -5.2880    1.7530   -1.1605
   -4.2297    1.5632   -0.0747
   -2.9905    2.1252   -0.5147
   -1.9586    1.9767    0.4641
   -0.6647    2.5948   -0.0635
    0.3960    2.4422    0.9427
    0.3664    3.1704    2.0552
   -0.5478    3.9713    2.2428
    1.4561    3.0136    3.0888
    1.3315    1.7374    3.7217
    1.4818    0.6344    2.9580
    1.7165    0.7443    1.7658
    1.3619   -0.7089    3.5672
    1.0934   -0.9557    5.0016
    1.0470   -2.2575    5.2938
    1.3143   -3.2849    3.8777
    1.4996   -1.8434    2.8676
    1.7643   -1.8440    1.5234
    1.8929   -2.9956    0.8706
    1.7740   -4.0608    1.4740
    2.1788   -2.9945   -0.5815
    2.3094   -4.2293   -1.2283
    2.6521   -4.2933   -2.5841
    2.8808   -3.1226   -3.3165
    2.6990   -1.8858   -2.6862
    2.3277   -1.8258   -1.3377
    3.3101   -3.2143   -4.7614
    4.8337   -3.2513   -4.8370
   -5.2791    3.7524    0.6914
   -6.9535    3.3915    0.2183
   -6.2121    4.9376   -0.2482
   -6.2710    3.3812   -2.1644
   -4.5951    3.7213   -1.6807
   -6.2160    1.2788   -0.8482
   -4.9419    1.2991   -2.0867
   -4.5506    2.0631    0.8368
   -4.0964    0.5012    0.1208
   -1.7988    0.9197    0.6661
   -2.2531    2.4815    1.3819
   -0.8230    3.6521   -0.2651
   -0.3688    2.0903   -0.9808
    1.1473    1.7847    0.7897
    2.4282    3.0846    2.6055
    1.3636    3.7988    3.8361
    0.9429   -0.1566    5.7123
    0.8527   -2.6272    6.2897
    1.8619   -0.9694    1.0279
    2.1490   -5.1437   -0.6765
    2.7439   -5.2514   -3.0739
    2.8452   -0.9798   -3.2556
    2.1445   -0.8461   -0.9218
    2.9403   -2.3472   -5.3046
    2.9022   -4.1209   -5.2034
    5.2015   -4.1256   -4.3041
    5.2408   -2.3507   -4.3820
    5.1432   -3.3039   -5.8787
@<BUDE>CONF  15
    5.3201    3.8774    2.1477
    5.3464    3.2458    0.7588
    5.0412    1.7530    0.8731
    3.6503    1.5632    1.4767
    2.6704    2.1252    0.5998
    1.3445    1.9767    1.1144
    0.3471    2.5949    0.1357
   -1.0158    2.4422    0.6647
   -1.4102    3.1705    1.7054
   -0.6353    3.9715    2.2255
   -2.8103    3.0137    2.2488
   -2.9349    1.7375    2.8817
   -2.7846    0.6345    2.1180
   -2.5499    0.7444    0.9258
   -2.9045   -0.7088    2.7272
   -3.1730   -0.9556    4.1616
   -3.2194   -2.2574    4.4538
   -2.9521   -3.2848    3.0377
   -2.7668   -1.8433    2.0276
   -2.5021   -1.8439    0.6834
   -2.3735   -2.9955    0.0306
   -2.4924   -4.0607    0.6340
   -2.0876   -2.9944   -1.4215
   -1.9570   -4.2292   -2.0683
   -1.6143   -4.2932   -3.4241
   -1.3856   -3.1225   -4.1565
   -1.5674   -1.8857   -3.5262
   -1.9387   -1.8257   -2.1777
   -0.9563   -3.2142   -5.6014
    0.5673   -3.2512   -5.6770
    6.0781    3.4097    2.7725
    4.3392    3.7290    2.5942
    5.5242    4.9428    2.0648
    4.5972    3.7213    0.1292
    6.3313    3.3811    0.3167
    5.0720    1.2991   -0.1150
    5.7817    1.2789    1.5140
    3.4527    0.5013    1.6072
    3.6018    2.0632    2.4418
    1.2690    2.4814    2.0753
    1.1200    0.9196    1.2407
    0.4210    2.0904   -0.8253
    0.5701    3.6522    0.0092
   -1.6530    1.7847    0.2384
   -3.0081    3.7989    2.9754
   -3.5266    3.0847    1.4330
   -3.3235   -0.1565    4.8723
   -3.4137   -2.6271    5.4497
   -2.4045   -0.9693    0.1879
   -2.1174   -5.1436   -1.5165
   -1.5225   -5.2513   -3.9139
   -1.4212   -0.9797   -4.0956
   -2.1219   -0.8460   -1.7618
   -1.3261   -2.3471   -6.1446
   -1.3642   -4.1208   -6.0434
    0.9351   -4.1255   -5.1441
    0.9744   -2.3506   -5.2220
    0.8768   -3.3038   -6.7187
@<BUDE>CONF  16
    2.2450    4.9162    8.1825
    2.1339    6.2403    7.4323
    0.9741    6.1668    6.4401
    1.2366    5.0480    5.4330
    0.1513    4.9793    4.5045
    0.3423    3.9463    3.5343
   -0.8466    3.9239    2.5747
   -0.6502    2.8621    1.5774
   -1.5663    2.6578    0.6350
   -2.5776    3.3567    0.5975
   -1.3646    1.5670   -0.3895
   -1.4892    0.2908    0.2434
   -1.3389   -0.8122   -0.5203
   -1.1042   -0.7023   -1.7125
   -1.4588   -2.1555    0.0889
   -1.7273   -2.4023    1.5233
   -1.7737   -3.7041    1.8155
   -1.5064   -4.7315    0.3994
   -1.3211   -3.2900   -0.6107
   -1.0564   -3.2906   -1.9549
   -0.9278   -4.4422   -2.6077
   -1.0467   -5.5074   -2.0043
   -0.6419   -4.4411   -4.0598
   -0.5113   -5.6759   -4.7066
   -0.1686   -5.7399   -6.0624
    0.0601   -4.5692   -6.7948
   -0.1217   -3.3324   -6.1645
   -0.4930   -3.2724   -4.8160
    0.4894   -4.6609   -8.2397
    2.0130   -4.6979   -8.3153
    2.4379    4.1136    7.4738
    1.3136    4.7194    8.7093
    3.0622    4.9732    8.8984
    1.9533    7.0456    8.1413
    3.0596    6.4315    6.8935
    0.0499    5.9619    6.9761
    0.8861    7.1148    5.9134
    2.1604    5.2523    4.8956
    1.3241    4.0994    5.9586
    0.4194    2.9848    4.0375
    1.2555    4.1377    2.9747
   -0.9243    4.8846    2.0701
   -1.7604    3.7317    3.1330
    0.1799    2.2875    1.6072
   -2.1164    1.6586   -1.1706
   -0.3728    1.6587   -0.8272
   -1.8778   -1.6032    2.2340
   -1.9680   -4.0738    2.8114
   -0.9588   -2.4160   -2.4504
   -0.6717   -6.5903   -4.1548
   -0.0768   -6.6980   -6.5522
    0.0245   -2.4264   -6.7339
   -0.6762   -2.2927   -4.4001
    0.1196   -3.7938   -8.7829
    0.0815   -5.5675   -8.6817
    2.3808   -5.5722   -7.7824
    2.4201   -3.7973   -7.8603
    2.3225   -4.7505   -9.3570
@<BUDE>CONF  17
    4.3314    4.3358   -3.1467
    3.7768    3.1740   -2.3274
    4.3964    3.1952   -0.9308
    3.8410    2.0318   -0.1105
    2.4301    2.1968    0.0545
    1.8531    1.1336    0.8172
    0.3496    1.3667    0.9578
    0.1122    2.4839    1.8832
   -1.1316    2.8664    2.1580
   -1.3316    3.8010    2.9320
   -2.2990    2.1526    1.5193
   -2.4061    0.8344    2.0631
   -2.6658    0.7128    3.3823
   -2.8016    1.7096    4.0725
   -2.7857   -0.6305    3.9915
   -3.0542   -0.8773    5.4259
   -3.1006   -2.1791    5.7181
   -2.8333   -3.2065    4.3020
   -2.6480   -1.7650    3.2919
   -2.3833   -1.7656    1.9477
   -2.2547   -2.9172    1.2949
   -2.3736   -3.9824    1.8983
   -1.9688   -2.9161   -0.1572
   -1.8382   -4.1509   -0.8040
   -1.4955   -4.2149   -2.1598
   -1.2668   -3.0442   -2.8922
   -1.4486   -1.8074   -2.2619
   -1.8199   -1.7474   -0.9134
   -0.8375   -3.1359   -4.3371
    0.6861   -3.1729   -4.4127
    5.4105    4.2315   -3.2384
    4.0983    5.2742   -2.6480
    3.8802    4.3287   -4.1366
    2.6961    3.2705   -2.2456
    4.0215    2.2341   -2.8178
    5.4769    3.0981   -1.0112
    4.1516    4.1343   -0.4390
    4.0379    1.0954   -0.6284
    4.3201    2.0147    0.8662
    2.3090    1.1058    1.8047
    2.0268    0.1868    0.3101
   -0.1225    0.4673    1.3475
   -0.0733    1.6066   -0.0154
    0.8930    2.9613    2.3104
   -3.2156    2.7029    1.7208
   -2.1421    2.0892    0.4446
   -3.2047   -0.0782    6.1366
   -3.2949   -2.5488    6.7140
   -2.2857   -0.8910    1.4522
   -1.9986   -5.0653   -0.2522
   -1.4037   -5.1730   -2.6496
   -1.3024   -0.9014   -2.8313
   -2.0031   -0.7677   -0.4975
   -1.2073   -2.2688   -4.8803
   -1.2454   -4.0425   -4.7791
    1.0539   -4.0472   -3.8798
    1.0932   -2.2723   -3.9577
    0.9956   -3.2255   -5.4544
@<BUDE>CONF  18
    3.9660   -1.0053    4.2142
    3.1992    0.3047    4.3711
    3.9720    1.4312    3.6865
    3.2042    2.7430    3.8436
    1.9416    2.6377    3.1805
    1.1760    3.8402    3.2942
   -0.1568    3.6649    2.5680
    0.0738    3.6621    1.1162
   -0.9514    3.5215    0.2807
   -0.7598    3.5189   -0.9342
   -2.3515    3.3647    0.8241
   -2.4761    2.0885    1.4570
   -2.3258    0.9855    0.6933
   -2.0911    1.0954   -0.4989
   -2.4457   -0.3578    1.3025
   -2.7142   -0.6046    2.7369
   -2.7606   -1.9064    3.0291
   -2.4933   -2.9338    1.6130
   -2.3080   -1.4923    0.6029
   -2.0433   -1.4929   -0.7413
   -1.9147   -2.6445   -1.3941
   -2.0336   -3.7097   -0.7907
   -1.6288   -2.6434   -2.8462
   -1.4982   -3.8782   -3.4930
   -1.1555   -3.9422   -4.8488
   -0.9268   -2.7715   -5.5812
   -1.1086   -1.5347   -4.9509
   -1.4799   -1.4747   -3.6024
   -0.4975   -2.8632   -7.0261
    1.0261   -2.9002   -7.1017
    4.9427   -0.9116    4.6843
    4.0918   -1.2266    3.1564
    3.4093   -1.8098    4.6900
    2.2174    0.2082    3.9122
    3.0850    0.5345    5.4284
    4.9536    1.5293    4.1450
    4.0860    1.2030    2.6288
    3.0423    2.9449    4.9004
    3.7783    3.5550    3.4023
    1.7264    4.6651    2.8466
    0.9905    4.0548    4.3446
   -0.8224    4.4855    2.8272
   -0.6105    2.7215    2.8642
    1.0103    3.7669    0.7528
   -2.5493    4.1499    1.5507
   -3.0678    3.4357    0.0083
   -2.8647    0.1945    3.4476
   -2.9549   -2.2761    4.0250
   -1.9457   -0.6183   -1.2368
   -1.6586   -4.7926   -2.9412
   -1.0637   -4.9003   -5.3386
   -0.9624   -0.6287   -5.5203
   -1.6631   -0.4950   -3.1865
   -0.8673   -1.9961   -7.5693
   -0.9054   -3.7698   -7.4681
    1.3939   -3.7745   -6.5688
    1.4332   -1.9996   -6.6467
    1.3356   -2.9528   -8.1434
@<BUDE>CONF  19
    4.3777   -1.3362    2.5747
    4.6437    0.1570    2.4064
    3.5967    0.7575    1.4694
    3.8631    2.2527    1.3009
    2.8832    2.8147    0.4240
    1.5573    2.6662    0.9386
    0.5599    3.2844   -0.0401
   -0.8030    3.1317    0.4889
   -1.1974    3.8600    1.5296
   -0.4225    4.6610    2.0497
   -2.5975    3.7032    2.0730
   -2.7221    2.4270    2.7059
   -2.5718    1.3240    1.9422
   -2.3371    1.4339    0.7500
   -2.6917   -0.0193    2.5514
   -2.9602   -0.2661    3.9858
   -3.0066   -1.5679    4.2780
   -2.7393   -2.5953    2.8619
   -2.5540   -1.1538    1.8518
   -2.2893   -1.1544    0.5076
   -2.1607   -2.3060   -0.1452
   -2.2796   -3.3712    0.4582
   -1.8748   -2.3049   -1.5973
   -1.7442   -3.5397   -2.2441
   -1.4015   -3.6037   -3.5999
   -1.1728   -2.4330   -4.3323
   -1.3546   -1.1962   -3.7020
   -1.7259   -1.1362   -2.3535
   -0.7435   -2.5247   -5.7772
    0.7801   -2.5617   -5.8528
    4.4478   -1.8278    1.6067
    3.3806   -1.4822    2.9848
    5.1151   -1.7611    3.2524
    4.5862    0.6478    3.3757
    5.6352    0.3040    1.9831
    3.6537    0.2681    0.4995
    2.6048    0.6120    1.8922
    3.8056    2.7435    2.2702
    4.8545    2.3995    0.8774
    1.4818    3.1709    1.8995
    1.3328    1.6091    1.0649
    0.6338    2.7799   -1.0011
    0.7829    4.3417   -0.1666
   -1.4402    2.4742    0.0626
   -2.7953    4.4884    2.7996
   -3.3138    3.7742    1.2572
   -3.1107    0.5330    4.6965
   -3.2009   -1.9376    5.2739
   -2.1917   -0.2798    0.0121
   -1.9046   -4.4541   -1.6923
   -1.3097   -4.5618   -4.0897
   -1.2084   -0.2902   -4.2714
   -1.9091   -0.1565   -1.9376
   -1.1133   -1.6576   -6.3204
   -1.1514   -3.4313   -6.2192
    1.1479   -3.4360   -5.3199
    1.1872   -1.6611   -5.3978
    1.0896   -2.6143   -6.8945
@<BUDE>CONF  20
   -2.4136    8.0927    3.7689
   -1.4452    7.8275    4.9180
   -0.0092    7.9135    4.4029
    0.2067    6.8572    3.3201
    0.0421    5.5546    3.8865
    0.2331    4.5216    2.9163
    0.0446    3.1587    3.5808
    0.2410    2.0969    2.5835
   -0.6751    1.8926    1.6411
   -1.6864    2.5915    1.6036
   -0.4734    0.8018    0.6166
   -0.5980   -0.4744    1.2495
   -0.4477   -1.5774    0.4858
   -0.2130   -1.4675   -0.7064
   -0.5676   -2.9207    1.0950
   -0.8361   -3.1675    2.5294
   -0.8825   -4.4693    2.8216
   -0.6152   -5.4967    1.4055
   -0.4299   -4.0552    0.3954
   -0.1652   -4.0558   -0.9488
   -0.0366   -5.2074   -1.6016
   -0.1555   -6.2726   -0.9982
    0.2493   -5.2063   -3.0537
    0.3799   -6.4411   -3.7005
    0.7226   -6.5051   -5.0563
    0.9513   -5.3344   -5.7887
    0.7695   -4.0976   -5.1584
    0.3982   -4.0376   -3.8099
    1.3806   -5.4261   -7.2336
    2.9042   -5.4631   -7.3092
   -2.2713    7.3415    2.9949
   -2.2228    9.0808    3.3556
   -3.4357    8.0447    4.1385
   -1.5950    8.5707    5.6984
   -1.6255    6.8339    5.3232
    0.1682    8.9020    3.9848
    0.6825    7.7368    5.2240
   -0.5202    7.0000    2.5232
    1.2124    6.9518    2.9158
    1.2390    4.5888    2.5071
   -0.4935    4.6371    2.1147
   -0.9612    3.0899    3.9896
    0.7713    3.0417    4.3820
    1.0711    1.5223    2.6133
   -1.2252    0.8934   -0.1645
    0.5184    0.8935    0.1789
   -0.9866   -2.3684    3.2401
   -1.0768   -4.8390    3.8175
   -0.0676   -3.1812   -1.4443
    0.2195   -7.3555   -3.1487
    0.8144   -7.4632   -5.5461
    0.9157   -3.1916   -5.7278
    0.2150   -3.0579   -3.3940
    1.0108   -4.5590   -7.7768
    0.9727   -6.3327   -7.6756
    3.2720   -6.3374   -6.7763
    3.3113   -4.5625   -6.8542
    3.2137   -5.5157   -8.3509
@<BUDE>CONF  21
   -1.1603    5.6113   -5.2059
    0.1803    4.9013   -5.3714
    0.1086    3.5213   -4.7194
   -0.1876    3.6780   -3.2286
   -0.2547    2.3865   -2.6184
   -0.5304    2.4705   -1.2177
   -0.5893    1.0631   -0.6258
   -0.8728    1.1495    0.8140
    0.0641    1.5866    1.6507
    1.1675    1.9186    1.2206
   -0.2271    1.6753    3.1297
   -0.3342    0.3571    3.6735
   -0.5939    0.2355    4.9927
   -0.7297    1.2323    5.6829
   -0.7138   -1.1078    5.6019
   -0.9823   -1.3546    7.0363
   -1.0287   -2.6564    7.3285
   -0.7614   -3.6838    5.9124
   -0.5761   -2.2423    4.9023
   -0.3114   -2.2429    3.5581
   -0.1828   -3.3945    2.9053
   -0.3017   -4.4597    3.5087
    0.1031   -3.3934    1.4532
    0.2337   -4.6282    0.8064
    0.5764   -4.6922   -0.5494
    0.8051   -3.5215   -1.2818
    0.6233   -2.2847   -0.6515
    0.2520   -2.2247    0.6970
    1.2344   -3.6132   -2.7267
    2.7580   -3.6502   -2.8023
   -1.3773    5.7329   -4.1467
   -1.9442    5.0177   -5.6714
   -1.1136    6.5885   -5.6818
    0.4043    4.7903   -6.4303
    0.9630    5.4871   -4.8939
   -0.6831    2.9394   -5.1865
    1.0600    3.0091   -4.8476
    0.6040    4.2591   -2.7600
   -1.1392    4.1894   -3.0991
   -1.4859    2.9679   -1.0647
    0.2572    3.0375   -0.7258
    0.3659    0.5650   -0.7774
   -1.3771    0.4954   -1.1164
   -1.7785    0.8771    1.1683
    0.5804    2.2079    3.6277
   -1.1631    2.2079    3.2843
   -1.1328   -0.5555    7.7470
   -1.2230   -3.0261    8.3244
   -0.2138   -1.3683    3.0626
    0.0733   -5.5426    1.3582
    0.6682   -5.6503   -1.0392
    0.7695   -1.3787   -1.2209
    0.0688   -1.2450    1.1129
    0.8646   -2.7461   -3.2699
    0.8265   -4.5198   -3.1687
    3.1258   -4.5245   -2.2694
    3.1651   -2.7496   -2.3473
    3.0675   -3.7028   -3.8440
@<BUDE>CONF  22
   -1.7314    8.6359    1.0127
   -0.6997    8.4287    2.1178
   -0.8756    7.0367    2.7231
    0.1575    6.8292    3.8297
   -0.0071    5.5266    4.3961
    0.1839    4.4936    3.4259
   -0.0046    3.1307    4.0904
    0.1918    2.0689    3.0931
   -0.7243    1.8646    2.1507
   -1.7356    2.5635    2.1132
   -0.5226    0.7738    1.1262
   -0.6472   -0.5024    1.7591
   -0.4969   -1.6054    0.9954
   -0.2622   -1.4955   -0.1968
   -0.6168   -2.9487    1.6046
   -0.8853   -3.1955    3.0390
   -0.9317   -4.4973    3.3312
   -0.6644   -5.5247    1.9151
   -0.4791   -4.0832    0.9050
   -0.2144   -4.0838   -0.4392
   -0.0858   -5.2354   -1.0920
   -0.2047   -6.3006   -0.4886
    0.2001   -5.2343   -2.5441
    0.3307   -6.4691   -3.1909
    0.6734   -6.5331   -4.5467
    0.9021   -5.3624   -5.2791
    0.7203   -4.1256   -4.6488
    0.3490   -4.0656   -3.3003
    1.3314   -5.4541   -6.7240
    2.8550   -5.4911   -6.7996
   -2.7322    8.5582    1.4326
   -1.5989    7.8751    0.2465
   -1.5975    9.6218    0.5727
    0.3015    8.5186    1.7016
   -0.8402    9.1804    2.8917
   -1.8762    6.9458    3.1403
   -0.7344    6.2840    1.9502
    1.1587    6.9191    3.4135
    0.0168    7.5809    4.6036
    1.1898    4.5608    3.0167
   -0.5427    4.6091    2.6243
   -1.0104    3.0619    4.4992
    0.7221    3.0137    4.8916
    1.0219    1.4943    3.1229
   -1.2744    0.8654    0.3451
    0.4692    0.8655    0.6885
   -1.0358   -2.3964    3.7497
   -1.1260   -4.8670    4.3271
   -0.1168   -3.2092   -0.9347
    0.1703   -7.3835   -2.6391
    0.7652   -7.4912   -5.0365
    0.8665   -3.2196   -5.2182
    0.1658   -3.0859   -2.8844
    0.9616   -4.5870   -7.2672
    0.9235   -6.3607   -7.1660
    3.2228   -6.3654   -6.2667
    3.2621   -4.5905   -6.3446
    3.1645   -5.5437   -7.8413
@<BUDE>CONF  23
   -2.1208    2.5371    6.7811
   -3.3687    1.9440    6.1334
   -3.1061    1.7067    4.6469
   -2.7817    3.0372    3.9692
   -2.5360    2.8151    2.5781
   -2.2259    4.0294    1.8894
   -1.9746    3.7267    0.4130
   -0.6873    3.0318    0.2683
   -0.2605    2.6678   -0.9375
   -0.9420    2.9121   -1.9317
    1.0619    1.9540   -1.0861
    0.9548    0.6358   -0.5423
    0.6951    0.5142    0.7769
    0.5593    1.5110    1.4671
    0.5752   -0.8291    1.3861
    0.3067   -1.0759    2.8205
    0.2603   -2.3777    3.1127
    0.5276   -3.4051    1.6966
    0.7129   -1.9636    0.6865
    0.9776   -1.9642   -0.6577
    1.1062   -3.1158   -1.3105
    0.9873   -4.1810   -0.7071
    1.3921   -3.1147   -2.7626
    1.5227   -4.3495   -3.4094
    1.8654   -4.4135   -4.7652
    2.0941   -3.2428   -5.4976
    1.9123   -2.0060   -4.8673
    1.5410   -1.9460   -3.5188
    2.5234   -3.3345   -6.9425
    4.0470   -3.3715   -7.0181
   -1.8851    3.4884    6.3087
   -1.2859    1.8514    6.6533
   -2.3032    2.6936    7.8421
   -3.6127    0.9985    6.6134
   -4.2011    2.6351    6.2482
   -2.2650    1.0266    4.5306
   -3.9910    1.2722    4.1866
   -3.6225    3.7180    4.0841
   -1.8964    3.4723    4.4282
   -1.3342    4.4763    2.3241
   -3.0603    4.7218    1.9800
   -1.9487    4.6576   -0.1495
   -2.7727    3.0934    0.0311
   -0.1268    2.8307    1.0841
    1.3242    1.8906   -2.1401
    1.8337    2.5043   -0.5521
    0.1562   -0.2768    3.5312
    0.0660   -2.7474    4.1086
    1.0752   -1.0896   -1.1532
    1.3623   -5.2639   -2.8576
    1.9572   -5.3716   -5.2550
    2.0585   -1.1000   -5.4367
    1.3578   -0.9663   -3.1029
    2.1536   -2.4674   -7.4857
    2.1155   -4.2411   -7.3845
    4.4148   -4.2458   -6.4852
    4.4541   -2.4709   -6.5631
    4.3565   -3.4241   -8.0598
@<BUDE>CONF  24
    6.3131    3.1127   -0.0362
    5.6390    3.1182   -1.4052
    4.1315    3.2944   -1.2289
    3.5761    2.1310   -0.4086
    2.1652    2.2960   -0.2436
    1.5882    1.2328    0.5191
    0.0847    1.4659    0.6597
   -0.1527    2.5831    1.5851
   -1.3965    2.9656    1.8599
   -1.5965    3.9002    2.6339
   -2.5639    2.2518    1.2212
   -2.6710    0.9336    1.7650
   -2.9307    0.8120    3.0842
   -3.0665    1.8088    3.7744
   -3.0506   -0.5313    3.6934
   -3.3191   -0.7781    5.1278
   -3.3655   -2.0799    5.4200
   -3.0982   -3.1073    4.0039
   -2.9129   -1.6658    2.9938
   -2.6482   -1.6664    1.6496
   -2.5196   -2.8180    0.9968
   -2.6385   -3.8832    1.6002
   -2.2337   -2.8169   -0.4553
   -2.1031   -4.0517   -1.1021
   -1.7604   -4.1157   -2.4579
   -1.5317   -2.9450   -3.1903
   -1.7135   -1.7082   -2.5600
   -2.0848   -1.6482   -1.2115
   -1.1024   -3.0367   -4.6352
    0.4212   -3.0737   -4.7108
    5.9281    2.2834    0.5536
    6.1030    4.0500    0.4745
    7.3879    3.0006   -0.1624
    6.0324    3.9395   -2.0006
    5.8366    2.1755   -1.9113
    3.9332    4.2300   -0.7105
    3.6511    3.3110   -2.2050
    3.7730    1.1946   -0.9265
    4.0552    2.1139    0.5681
    2.0441    1.2050    1.5066
    1.7619    0.2860    0.0120
   -0.3874    0.5665    1.0494
   -0.3382    1.7058   -0.3135
    0.6281    3.0605    2.0123
   -3.4805    2.8021    1.4227
   -2.4070    2.1884    0.1465
   -3.4696    0.0210    5.8385
   -3.5598   -2.4496    6.4159
   -2.5506   -0.7918    1.1541
   -2.2635   -4.9661   -0.5503
   -1.6686   -5.0738   -2.9477
   -1.5673   -0.8022   -3.1294
   -2.2680   -0.6685   -0.7956
   -1.4722   -2.1696   -5.1784
   -1.5103   -3.9433   -5.0772
    0.7890   -3.9480   -4.1779
    0.8283   -2.1731   -4.2558
    0.7307   -3.1263   -5.7525
@<BUDE>CONF  25
   -1.7890   -0.5787   -2.9409
   -3.0551   -0.1347   -2.2141
   -2.7822    1.1712   -1.4690
   -4.0501    1.6158   -0.7412
   -3.7947    2.8379   -0.0440
   -2.7628    2.6894    0.9349
   -2.5376    4.0246    1.6428
   -1.4769    3.8720    2.6489
   -0.2115    3.7313    2.2644
    0.0718    3.7289    1.0676
    0.8782    3.5745    3.2980
    0.7536    2.2983    3.9309
    0.9039    1.1953    3.1672
    1.1386    1.3052    1.9750
    0.7840   -0.1480    3.7764
    0.5155   -0.3948    5.2108
    0.4691   -1.6966    5.5030
    0.7364   -2.7240    4.0869
    0.9217   -1.2825    3.0768
    1.1864   -1.2831    1.7326
    1.3150   -2.4347    1.0798
    1.1961   -3.4999    1.6832
    1.6009   -2.4336   -0.3723
    1.7315   -3.6684   -1.0191
    2.0742   -3.7324   -2.3749
    2.3029   -2.5617   -3.1073
    2.1211   -1.3249   -2.4770
    1.7498   -1.2649   -1.1285
    2.7322   -2.6534   -4.5522
    4.2558   -2.6904   -4.6278
   -0.9952   -0.7460   -2.2159
   -1.4835    0.1953   -3.6418
   -1.9870   -1.5014   -3.4823
   -3.8533    0.0209   -2.9369
   -3.3537   -0.9018   -1.5027
   -1.9847    1.0168   -0.7454
   -2.4844    1.9394   -2.1796
   -4.8483    1.7714   -1.4640
   -4.3485    0.8486   -0.0298
   -1.8413    2.3783    0.4471
   -3.0592    1.9384    1.6642
   -3.4582    4.3363    2.1317
   -2.2404    4.7762    0.9146
   -1.7084    3.8738    3.6320
    1.8503    3.6455    2.8147
    0.7857    4.3597    4.0453
    0.3650    0.4043    5.9215
    0.2748   -2.0663    6.4989
    1.2840   -0.4085    1.2371
    1.5711   -4.5828   -0.4673
    2.1660   -4.6905   -2.8647
    2.2673   -0.4189   -3.0464
    1.5666   -0.2852   -0.7126
    2.3624   -1.7863   -5.0954
    2.3243   -3.5600   -4.9942
    4.6236   -3.5647   -4.0949
    4.6629   -1.7898   -4.1728
    4.5653   -2.7430   -5.6695
@<BUDE>CONF  26
    3.5175    6.9017    3.8721
    2.2250    6.5968    4.6237
    2.3342    5.2246    5.2871
    1.0399    4.9192    6.0397
   -0.0454    4.8505    5.1112
    0.1456    3.8175    4.1410
   -1.0433    3.7951    3.1814
   -0.8469    2.7333    2.1841
   -1.7630    2.5290    1.2417
   -2.7743    3.2279    1.2042
   -1.5613    1.4382    0.2172
   -1.6859    0.1620    0.8501
   -1.5356   -0.9410    0.0864
   -1.3009   -0.8311   -1.1058
   -1.6555   -2.2843    0.6956
   -1.9240   -2.5311    2.1300
   -1.9704   -3.8329    2.4222
   -1.7031   -4.8603    1.0061
   -1.5178   -3.4188   -0.0040
   -1.2531   -3.4194   -1.3482
   -1.1245   -4.5710   -2.0010
   -1.2434   -5.6362   -1.3976
   -0.8386   -4.5699   -3.4531
   -0.7080   -5.8047   -4.0999
   -0.3653   -5.8687   -5.4557
   -0.1366   -4.6980   -6.1881
   -0.3184   -3.4612   -5.5578
   -0.6897   -3.4012   -4.2093
    0.2927   -4.7897   -7.6330
    1.8163   -4.8267   -7.7086
    3.6746    6.1495    3.1019
    4.3531    6.8883    4.5687
    3.4449    7.8844    3.4109
    2.0603    7.3554    5.3860
    1.3903    6.5960    3.9257
    2.4982    4.4650    4.5258
    3.1681    5.2245    5.9861
    1.1359    3.9662    6.5557
    0.8468    5.7072    6.7647
    0.2227    2.8560    4.6442
    1.0588    4.0089    3.5814
   -1.1210    4.7558    2.6768
   -1.9571    3.6029    3.7397
   -0.0168    2.1587    2.2139
   -2.3131    1.5298   -0.5639
   -0.5695    1.5299   -0.2205
   -2.0745   -1.7320    2.8407
   -2.1647   -4.2026    3.4181
   -1.1555   -2.5448   -1.8437
   -0.8684   -6.7191   -3.5481
   -0.2735   -6.8268   -5.9455
   -0.1722   -2.5552   -6.1272
   -0.8729   -2.4215   -3.7934
   -0.0771   -3.9226   -8.1762
   -0.1152   -5.6963   -8.0750
    2.1841   -5.7010   -7.1757
    2.2234   -3.9261   -7.2536
    2.1258   -4.8793   -8.7503
@<BUDE>CONF  27
   -5.0147    6.9018    2.1923
   -4.1035    6.5968    3.3778
   -4.4562    5.2247    3.9503
   -3.5437    4.9193    5.1373
   -2.1874    4.8505    4.6896
   -1.9964    3.8175    3.7193
   -0.5325    3.7951    3.2820
   -0.3362    2.7333    2.2847
    0.8688    2.5290    1.7599
    1.8188    3.2278    2.1087
    1.0705    1.4382    0.7354
    0.9459    0.1620    1.3683
    1.0962   -0.9410    0.6046
    1.3309   -0.8311   -0.5876
    0.9763   -2.2843    1.2138
    0.7078   -2.5311    2.6482
    0.6614   -3.8329    2.9404
    0.9287   -4.8603    1.5243
    1.1140   -3.4188    0.5142
    1.3787   -3.4194   -0.8300
    1.5073   -4.5710   -1.4828
    1.3884   -5.6362   -0.8794
    1.7932   -4.5699   -2.9349
    1.9238   -5.8047   -3.5817
    2.2665   -5.8687   -4.9375
    2.4952   -4.6980   -5.6699
    2.3134   -3.4612   -5.0396
    1.9421   -3.4012   -3.6911
    2.9245   -4.7897   -7.1148
    4.4481   -4.8267   -7.1904
   -6.0503    6.9147    2.5256
   -4.8876    6.1348    1.4313
   -4.7547    7.8729    1.7763
   -3.0666    6.5960    3.0482
   -4.2400    7.3554    4.1456
   -5.4926    5.2244    4.2809
   -4.3192    4.4650    3.1835
   -3.6398    5.7071    5.8815
   -3.8282    3.9662    5.5783
   -2.6294    4.0089    2.8554
   -2.2585    2.8560    4.1559
    0.1015    3.6029    4.1450
   -0.2694    4.7558    2.8445
   -1.1156    2.1588    1.9975
    0.3187    1.5298   -0.0457
    2.0623    1.5299    0.2977
    0.5573   -1.7320    3.3589
    0.4671   -4.2026    3.9363
    1.4763   -2.5448   -1.3255
    1.7634   -6.7191   -3.0299
    2.3583   -6.8268   -5.4273
    2.4596   -2.5552   -5.6090
    1.7589   -2.4215   -3.2752
    2.5547   -3.9226   -7.6580
    2.5166   -5.6963   -7.5568
    4.8159   -5.7010   -6.6575
    4.8552   -3.9261   -6.7354
    4.7576   -4.8793   -8.2321
@<BUDE>CONF  28
   -2.9929    0.9238    3.9039
   -2.7316    0.4809    2.4672
   -3.8838    0.9414    1.5755
   -3.6221    0.4978    0.1369
   -2.4367    1.1332   -0.3488
   -2.5559    2.5583   -0.3497
   -1.2620    3.1764   -0.8773
   -0.2013    3.0238    0.1289
   -0.2309    3.7520    1.2414
   -1.1451    4.5529    1.4290
    0.8588    3.5952    2.2750
    0.7342    2.3190    2.9079
    0.8845    1.2160    2.1442
    1.1192    1.3259    0.9520
    0.7646   -0.1273    2.7534
    0.4961   -0.3741    4.1878
    0.4497   -1.6759    4.4800
    0.7170   -2.7033    3.0639
    0.9023   -1.2618    2.0538
    1.1670   -1.2624    0.7096
    1.2956   -2.4140    0.0568
    1.1767   -3.4792    0.6602
    1.5815   -2.4129   -1.3953
    1.7121   -3.6477   -2.0421
    2.0548   -3.7117   -3.3979
    2.2835   -2.5410   -4.1303
    2.1017   -1.3042   -3.5000
    1.7304   -1.2442   -2.1515
    2.7128   -2.6327   -5.5752
    4.2364   -2.6697   -5.6508
   -3.9163    0.4717    4.2598
   -3.0825    2.0076    3.9379
   -2.1661    0.6076    4.5363
   -1.8019    0.9224    2.1143
   -2.6559   -0.6038    2.4295
   -4.8140    0.5000    1.9269
   -3.9600    2.0262    1.6117
   -3.4921   -0.5820    0.1076
   -4.4662    0.7793   -0.4892
   -2.7372    2.9084    0.6643
   -3.3851    2.8531   -0.9895
   -1.4203    4.2337   -1.0789
   -0.9661    2.6719   -1.7946
    0.5500    2.3663   -0.0241
    1.8309    3.6662    1.7917
    0.7663    4.3804    3.0223
    0.3456    0.4250    4.8985
    0.2554   -2.0456    5.4759
    1.2646   -0.3878    0.2141
    1.5517   -4.5621   -1.4903
    2.1466   -4.6698   -3.8877
    2.2479   -0.3982   -4.0694
    1.5472   -0.2645   -1.7356
    2.3430   -1.7656   -6.1184
    2.3049   -3.5393   -6.0172
    4.6042   -3.5440   -5.1179
    4.6435   -1.7691   -5.1958
    4.5459   -2.7223   -6.6925
@<BUDE>CONF  29
    0.9977    0.9238    4.6896
    1.3005    0.4808    3.2610
    2.7048    0.9414    2.8727
    3.0079    0.4978    1.4423
    2.0951    1.1332    0.5435
    2.2058    2.5582    0.5878
    1.2084    3.1764   -0.3909
   -0.1545    3.0237    0.1381
   -0.5489    3.7520    1.1788
    0.2260    4.5530    1.6989
   -1.9490    3.5952    1.7222
   -2.0736    2.3190    2.3551
   -1.9233    1.2160    1.5914
   -1.6886    1.3259    0.3992
   -2.0432   -0.1273    2.2006
   -2.3117   -0.3741    3.6350
   -2.3581   -1.6759    3.9272
   -2.0908   -2.7033    2.5111
   -1.9055   -1.2618    1.5010
   -1.6408   -1.2624    0.1568
   -1.5122   -2.4140   -0.4960
   -1.6311   -3.4792    0.1074
   -1.2263   -2.4129   -1.9481
   -1.0957   -3.6477   -2.5949
   -0.7530   -3.7117   -3.9507
   -0.5243   -2.5410   -4.6831
   -0.7061   -1.3042   -4.0528
   -1.0774   -1.2442   -2.7043
   -0.0950   -2.6327   -6.1280
    1.4286   -2.6697   -6.2036
    1.0415    2.0093    4.7489
    1.7332    0.4931    5.3657
    0.0031    0.5843    4.9707
    1.2447   -0.6039    3.1975
    0.5740    0.9223    2.5820
    2.7616    2.0260    2.9351
    3.4323    0.4998    3.5506
    4.0264    0.7791    1.1827
    2.8986   -0.5820    1.3659
    3.2156    2.8531    0.3102
    1.9891    2.9083    1.5949
    1.2823    2.6719   -1.3519
    1.4314    4.2337   -0.5174
   -0.7917    2.3662   -0.2882
   -2.1468    4.3804    2.4488
   -2.6653    3.6662    0.9064
   -2.4622    0.4250    4.3457
   -2.5524   -2.0456    4.9231
   -1.5432   -0.3878   -0.3387
   -1.2561   -4.5621   -2.0431
   -0.6612   -4.6698   -4.4405
   -0.5599   -0.3982   -4.6222
   -1.2606   -0.2645   -2.2884
   -0.4648   -1.7656   -6.6712
   -0.5029   -3.5393   -6.5700
    1.7964   -3.5440   -5.6707
    1.8357   -1.7691   -5.7486
    1.7381   -2.7223   -7.2453
@<BUDE>CONF  30
   -6.0976    0.7043    1.5060
   -4.7015    1.0678    1.0088
   -4.1052   -0.1197    0.2544
   -2.7072    0.2444   -0.2436
   -2.8002    1.3273   -1.1729
   -1.5178    1.7129   -1.6745
   -0.6354    2.1726   -0.5149
    0.6828    2.5690   -1.0305
    1.6197    3.0061   -0.1938
    2.7231    3.3381   -0.6239
    1.3285    3.0948    1.2852
    1.2214    1.7766    1.8290
    0.9617    1.6550    3.1482
    0.8259    2.6518    3.8384
    0.8418    0.3117    3.7574
    0.5733    0.0649    5.1918
    0.5269   -1.2369    5.4840
    0.7942   -2.2643    4.0679
    0.9795   -0.8228    3.0578
    1.2442   -0.8234    1.7136
    1.3728   -1.9750    1.0608
    1.2539   -3.0402    1.6642
    1.6587   -1.9739   -0.3913
    1.7893   -3.2087   -1.0381
    2.1320   -3.2727   -2.3939
    2.3607   -2.1020   -3.1263
    2.1789   -0.8652   -2.4960
    1.8076   -0.8052   -1.1475
    2.7900   -2.1937   -4.5712
    4.3136   -2.2307   -4.6468
   -6.0312   -0.1454    2.1824
   -6.7278    0.4450    0.6580
   -6.5275    1.5543    2.0316
   -4.7652    1.9253    0.3420
   -4.0662    1.3137    1.8571
   -4.0403   -0.9775    0.9202
   -4.7393   -0.3659   -0.5948
   -2.0876    0.5430    0.5995
   -2.2610   -0.6174   -0.7354
   -1.6357    2.5284   -2.3850
   -1.0512    0.8641   -2.1700
   -0.5160    1.3576    0.1959
   -1.1006    3.0220   -0.0191
    0.8776    2.5097   -2.0198
    2.1360    3.6274    1.7832
    0.3925    3.6274    1.4398
    0.4228    0.8640    5.9025
    0.3326   -1.6066    6.4799
    1.3418    0.0512    1.2181
    1.6289   -4.1231   -0.4863
    2.2238   -4.2308   -2.8837
    2.3251    0.0408   -3.0654
    1.6244    0.1745   -0.7316
    2.4202   -1.3266   -5.1144
    2.3821   -3.1003   -5.0132
    4.6814   -3.1050   -4.1139
    4.7207   -1.3301   -4.1918
    4.6231   -2.2833   -5.6885
@<BUDE>CONF  31
    3.0911    0.7889   -2.2961
    3.0737    2.3124   -2.3818
    4.2165    2.8820   -1.5425
    4.0321    2.4663   -0.0837
    2.8193    3.0304    0.4221
    2.5931    2.6742    1.7884
    1.2869    3.3051    2.2687
    0.1505    2.6103    1.6469
   -1.0933    2.9928    1.9217
   -1.2933    3.9274    2.6957
   -2.2607    2.2790    1.2830
   -2.3678    0.9608    1.8268
   -2.6275    0.8392    3.1460
   -2.7633    1.8360    3.8362
   -2.7474   -0.5041    3.7552
   -3.0159   -0.7509    5.1896
   -3.0623   -2.0527    5.4818
   -2.7950   -3.0801    4.0657
   -2.6097   -1.6386    3.0556
   -2.3450   -1.6392    1.7114
   -2.2164   -2.7908    1.0586
   -2.3353   -3.8560    1.6620
   -1.9305   -2.7897   -0.3935
   -1.7999   -4.0245   -1.0403
   -1.4572   -4.0885   -2.3961
   -1.2285   -2.9178   -3.1285
   -1.4103   -1.6810   -2.4982
   -1.7816   -1.6210   -1.1497
   -0.7992   -3.0095   -4.5734
    0.7244   -3.0465   -4.6490
    2.9544    0.4830   -1.2609
    4.0457    0.4167   -2.6618
    2.2856    0.3829   -2.9043
    3.1978    2.6194   -3.4182
    2.1249    2.6869   -2.0031
    5.1649    2.4973   -1.9114
    4.2128    3.9677   -1.6129
    3.9816    1.3815   -0.0186
    4.8725    2.8270    0.5057
    3.4166    3.0371    2.3998
    2.5257    1.5918    1.8753
    1.2663    4.3560    1.9879
    1.2172    3.2166    3.3508
    0.3136    1.8427    1.0111
   -3.1773    2.8293    1.4845
   -2.1038    2.2156    0.2083
   -3.1664    0.0482    5.9003
   -3.2566   -2.4224    6.4777
   -2.2474   -0.7646    1.2159
   -1.9603   -4.9389   -0.4885
   -1.3654   -5.0466   -2.8859
   -1.2641   -0.7750   -3.0676
   -1.9648   -0.6413   -0.7338
   -1.1690   -2.1424   -5.1166
   -1.2071   -3.9161   -5.0154
    1.0922   -3.9208   -4.1161
    1.1315   -2.1459   -4.1940
    1.0339   -3.0991   -5.6907
@<BUDE>CONF  32
   -5.8903    0.6831    1.6357
   -5.4590    0.0076    0.3371
   -4.1350    0.6081   -0.1330
   -4.3176    2.1033   -0.3899
   -3.0784    2.6653   -0.8299
   -2.0465    2.5168    0.1489
   -0.7526    3.1349   -0.3787
    0.3081    2.9823    0.6275
    0.2785    3.7105    1.7400
   -0.6357    4.5114    1.9276
    1.3682    3.5537    2.7736
    1.2436    2.2775    3.4065
    1.3939    1.1745    2.6428
    1.6286    1.2844    1.4506
    1.2740   -0.1688    3.2520
    1.0055   -0.4156    4.6864
    0.9591   -1.7174    4.9786
    1.2264   -2.7448    3.5625
    1.4117   -1.3033    2.5524
    1.6764   -1.3039    1.2082
    1.8050   -2.4555    0.5554
    1.6861   -3.5207    1.1588
    2.0909   -2.4544   -0.8967
    2.2215   -3.6892   -1.5435
    2.5642   -3.7532   -2.8993
    2.7929   -2.5825   -3.6317
    2.6111   -1.3457   -3.0014
    2.2398   -1.2857   -1.6529
    3.2222   -2.6742   -5.0766
    4.7458   -2.7112   -5.1522
   -6.0287    1.7480    1.4612
   -5.1228    0.5358    2.3926
   -6.8262    0.2462    1.9775
   -5.3324   -1.0596    0.5074
   -6.2193    0.1662   -0.4248
   -3.3773    0.4625    0.6340
   -3.8201    0.1186   -1.0522
   -5.0746    2.2502   -1.1575
   -4.6317    2.5940    0.5289
   -1.8867    1.4598    0.3509
   -2.3410    3.0216    1.0667
   -0.9109    4.1922   -0.5803
   -0.4567    2.6304   -1.2960
    1.0594    2.3248    0.4745
    2.3403    3.6247    2.2903
    1.2757    4.3389    3.5209
    0.8550    0.3835    5.3971
    0.7648   -2.0871    5.9745
    1.7740   -0.4293    0.7127
    2.0611   -4.6036   -0.9917
    2.6560   -4.7113   -3.3891
    2.7573   -0.4397   -3.5708
    2.0566   -0.3060   -1.2370
    2.8524   -1.8071   -5.6198
    2.8143   -3.5808   -5.5186
    5.1136   -3.5855   -4.6193
    5.1529   -1.8106   -4.6972
    5.0553   -2.7638   -6.1939
@<BUDE>CONF  33
    6.5641    3.6655    0.1606
    5.1285    3.5533    0.6657
    4.2313    3.0439   -0.4615
    2.7937    2.9316    0.0443
    2.7338    1.9653    1.0967
    1.4078    1.8169    1.6113
    0.9311    3.1520    2.1811
   -0.4319    2.9994    2.7100
   -1.4571    2.8588    1.8745
   -1.2655    2.8562    0.6596
   -2.8572    2.7020    2.4179
   -2.9818    1.4258    3.0508
   -2.8315    0.3228    2.2871
   -2.5968    0.4327    1.0949
   -2.9514   -1.0205    2.8963
   -3.2199   -1.2673    4.3307
   -3.2663   -2.5691    4.6229
   -2.9990   -3.5965    3.2068
   -2.8137   -2.1550    2.1967
   -2.5490   -2.1556    0.8525
   -2.4204   -3.3072    0.1997
   -2.5393   -4.3724    0.8031
   -2.1345   -3.3061   -1.2524
   -2.0039   -4.5409   -1.8992
   -1.6612   -4.6049   -3.2550
   -1.4325   -3.4342   -3.9874
   -1.6143   -2.1974   -3.3571
   -1.9856   -2.1374   -2.0086
   -1.0032   -3.5259   -5.4323
    0.5204   -3.5629   -5.5079
    6.6027    4.3711   -0.6666
    6.9059    2.6898   -0.1780
    7.2052    4.0153    0.9670
    5.0906    2.8573    1.5011
    4.7804    4.5313    0.9916
    4.2677    3.7394   -1.2972
    4.5778    2.0655   -0.7876
    2.4645    3.8978    0.4207
    2.1451    2.6192   -0.7714
    1.4055    1.0659    2.3985
    0.7400    1.5058    0.8106
    0.9321    3.9037    1.3946
    1.5976    3.4637    2.9824
   -0.5904    3.0013    3.7075
   -3.0550    3.4872    3.1445
   -3.5735    2.7730    1.6021
   -3.3704   -0.4682    5.0414
   -3.4606   -2.9388    5.6188
   -2.4514   -1.2810    0.3570
   -2.1643   -5.4553   -1.3474
   -1.5694   -5.5630   -3.7448
   -1.4681   -1.2914   -3.9265
   -2.1688   -1.1577   -1.5927
   -1.3730   -2.6588   -5.9755
   -1.4111   -4.4325   -5.8743
    0.8882   -4.4372   -4.9750
    0.9275   -2.6623   -5.0529
    0.8299   -3.6155   -6.5496
@<BUDE>CONF  34
    2.8352    2.1764    6.1662
    1.8624    1.2044    5.5048
    0.4478    1.7784    5.5689
    0.4045    3.1090    4.8188
    0.7044    2.8869    3.4384
    0.6786    4.1012    2.6835
    1.0057    3.7984    1.2221
   -0.1307    3.1036    0.6003
   -0.0686    2.7396   -0.6775
    0.9390    2.9837   -1.3391
   -1.2360    2.0258   -1.3162
   -1.3431    0.7076   -0.7724
   -1.6028    0.5860    0.5468
   -1.7386    1.5828    1.2370
   -1.7227   -0.7573    1.1560
   -1.9912   -1.0041    2.5904
   -2.0376   -2.3059    2.8826
   -1.7703   -3.3333    1.4665
   -1.5850   -1.8918    0.4564
   -1.3203   -1.8924   -0.8878
   -1.1917   -3.0440   -1.5406
   -1.3106   -4.1092   -0.9372
   -0.9058   -3.0429   -2.9927
   -0.7752   -4.2777   -3.6395
   -0.4325   -4.3417   -4.9953
   -0.2038   -3.1710   -5.7277
   -0.3856   -1.9342   -5.0974
   -0.7569   -1.8742   -3.7489
    0.2255   -3.2627   -7.1726
    1.7491   -3.2997   -7.2482
    2.5574    2.3131    7.2092
    2.7962    3.1341    5.6515
    3.8443    1.7740    6.1087
    2.1466    1.0572    4.4650
    1.8901    0.2506    6.0275
   -0.2486    1.0807    5.1089
    0.1678    1.9393    6.6079
   -0.5887    3.5442    4.9080
    1.1391    3.7897    5.2439
    1.4162    4.7936    3.0837
   -0.3114    4.5480    2.7478
    1.8889    3.1652    1.1712
    1.1950    4.7293    0.6918
   -0.9586    2.9026    1.1426
   -2.1526    2.5761   -1.1147
   -1.0791    1.9624   -2.3909
   -2.1417   -0.2050    3.3011
   -2.2319   -2.6756    3.8785
   -1.2227   -1.0178   -1.3833
   -0.9356   -5.1921   -3.0877
   -0.3407   -5.2998   -5.4851
   -0.2394   -1.0282   -5.6668
   -0.9401   -0.8945   -3.3330
   -0.1443   -2.3956   -7.7158
   -0.1824   -4.1693   -7.6146
    2.1169   -4.1740   -6.7153
    2.1562   -2.3991   -6.7932
    2.0586   -3.3523   -8.2899
@<BUDE>CONF  35
   -3.5975   -1.7641   -3.7359
   -4.2080   -0.5486   -3.0442
   -3.2762   -0.0772   -1.9286
   -3.8875    1.1399   -1.2359
   -3.0155    1.5810   -0.1919
   -1.7331    1.9666   -0.6935
   -0.8507    2.4263    0.4661
    0.4675    2.8227   -0.0495
    1.4044    3.2598    0.7872
    2.5078    3.5918    0.3571
    1.1132    3.3485    2.2662
    1.0061    2.0303    2.8100
    0.7464    1.9087    4.1292
    0.6106    2.9055    4.8194
    0.6265    0.5654    4.7384
    0.3580    0.3186    6.1728
    0.3116   -0.9832    6.4650
    0.5789   -2.0106    5.0489
    0.7642   -0.5691    4.0388
    1.0289   -0.5697    2.6946
    1.1575   -1.7213    2.0418
    1.0386   -2.7865    2.6452
    1.4434   -1.7202    0.5897
    1.5740   -2.9550   -0.0571
    1.9167   -3.0190   -1.4129
    2.1454   -1.8483   -2.1453
    1.9636   -0.6115   -1.5150
    1.5923   -0.5515   -0.1665
    2.5747   -1.9400   -3.5902
    4.0983   -1.9770   -3.6658
   -3.4771   -2.5690   -3.0139
   -2.6265   -1.4968   -4.1472
   -4.2545   -2.0915   -4.5389
   -4.3405    0.2529   -3.7680
   -5.1729   -0.8183   -2.6202
   -3.1435   -0.8775   -1.2037
   -2.3111    0.1937   -2.3516
   -4.0200    1.9414   -1.9597
   -4.8524    0.8700   -0.8118
   -1.8510    2.7821   -1.4040
   -1.2665    1.1178   -1.1890
   -0.7313    1.6113    1.1769
   -1.3159    3.2757    0.9619
    0.6623    2.7634   -1.0388
    1.9207    3.8811    2.7642
    0.1772    3.8811    2.4208
    0.2075    1.1177    6.8835
    0.1173   -1.3529    7.4609
    1.1265    0.3049    2.1991
    1.4136   -3.8694    0.4947
    2.0085   -3.9771   -1.9027
    2.1098    0.2945   -2.0844
    1.4091    0.4282    0.2494
    2.2049   -1.0729   -4.1334
    2.1668   -2.8466   -4.0322
    4.4661   -2.8513   -3.1329
    4.5054   -1.0764   -3.2108
    4.4078   -2.0296   -4.7075
@<BUDE>CONF  36
   -2.2820    0.7890   -3.3539
   -2.2334    2.3125   -3.4267
   -3.6091    2.8820   -3.0833
   -3.9915    2.4664   -1.6634
   -3.0609    3.0305   -0.7357
   -3.3695    2.6743    0.6145
   -2.3429    3.3051    1.5540
   -1.0556    2.6103    1.4094
   -0.0088    2.9928    2.1353
   -0.1171    3.9273    2.9274
    1.3136    2.2790    1.9867
    1.2065    0.9608    2.5305
    0.9468    0.8392    3.8497
    0.8110    1.8360    4.5399
    0.8269   -0.5041    4.4589
    0.5584   -0.7509    5.8933
    0.5120   -2.0527    6.1855
    0.7793   -3.0801    4.7694
    0.9646   -1.6386    3.7593
    1.2293   -1.6392    2.4151
    1.3579   -2.7908    1.7623
    1.2390   -3.8560    2.3657
    1.6438   -2.7897    0.3102
    1.7744   -4.0245   -0.3366
    2.1171   -4.0885   -1.6924
    2.3458   -2.9178   -2.4248
    2.1640   -1.6810   -1.7945
    1.7927   -1.6210   -0.4460
    2.7751   -3.0095   -3.8697
    4.2987   -3.0465   -3.9453
   -3.0077    0.4152   -4.0733
   -2.5740    0.4836   -2.3514
   -1.2992    0.3840   -3.5854
   -1.4990    2.6868   -2.7165
   -1.9553    2.6195   -4.4327
   -3.5791    3.9676   -3.1470
   -4.3469    2.4972   -3.7842
   -4.9926    2.8270   -1.4365
   -3.9692    1.3815   -1.5841
   -3.3401    1.5919    0.7205
   -4.3633    3.0373    0.8680
   -2.6885    3.2167    2.5818
   -2.2174    4.3560    1.3020
   -0.9655    1.8427    0.7592
    1.5759    2.2156    0.9327
    2.0854    2.8293    2.5207
    0.4079    0.0482    6.6040
    0.3177   -2.4224    7.1814
    1.3269   -0.7646    1.9196
    1.6140   -4.9389    0.2152
    2.2089   -5.0466   -2.1822
    2.3102   -0.7750   -2.3639
    1.6095   -0.6413   -0.0301
    2.4053   -2.1424   -4.4129
    2.3672   -3.9161   -4.3117
    4.6665   -3.9208   -3.4124
    4.7058   -2.1459   -3.4903
    4.6082   -3.0991   -4.9870
@<BUDE>CONF  37
   -5.7153    0.7932   -1.2783
   -5.7851    1.3461    0.1422
   -4.6009    2.2814    0.3826
   -4.6709    2.8350    1.8051
   -3.5627    3.7103    2.0300
   -2.3104    3.0344    1.8893
   -1.1698    4.0196    2.1409
    0.1175    3.3247    1.9962
    0.5443    2.9607    0.7904
   -0.1372    3.2050   -0.2038
    1.8667    2.2469    0.6418
    1.7596    0.9287    1.1856
    1.4999    0.8071    2.5048
    1.3641    1.8039    3.1950
    1.3800   -0.5362    3.1140
    1.1115   -0.7830    4.5484
    1.0651   -2.0848    4.8406
    1.3324   -3.1122    3.4245
    1.5177   -1.6707    2.4144
    1.7824   -1.6713    1.0702
    1.9110   -2.8229    0.4174
    1.7921   -3.8881    1.0208
    2.1969   -2.8218   -1.0347
    2.3275   -4.0566   -1.6815
    2.6702   -4.1206   -3.0373
    2.8989   -2.9499   -3.7697
    2.7171   -1.7131   -3.1394
    2.3458   -1.6531   -1.7909
    3.3282   -3.0416   -5.2146
    4.8518   -3.0786   -5.2902
   -4.7918    0.2316   -1.4032
   -5.7385    1.6167   -1.9889
   -6.5657    0.1378   -1.4539
   -6.7141    1.8974    0.2722
   -5.7478    0.5243    0.8543
   -3.6714    1.7311    0.2537
   -4.6377    3.1042   -0.3283
   -5.5999    3.3863    1.9351
   -4.6334    2.0131    2.5170
   -2.2257    2.6321    0.8820
   -2.2528    2.2221    2.6109
   -1.2529    4.4219    3.1483
   -1.2258    4.8319    1.4194
    0.6780    3.1236    2.8120
    2.1290    2.1835   -0.4122
    2.6385    2.7972    1.1758
    0.9610    0.0161    5.2591
    0.8708   -2.4545    5.8365
    1.8800   -0.7967    0.5747
    2.1671   -4.9710   -1.1297
    2.7620   -5.0787   -3.5271
    2.8633   -0.8071   -3.7088
    2.1626   -0.6734   -1.3750
    2.9584   -2.1745   -5.7578
    2.9203   -3.9482   -5.6566
    5.2196   -3.9529   -4.7573
    5.2589   -2.1780   -4.8352
    5.1613   -3.1312   -6.3319
@<BUDE>CONF  38
   -5.6047    3.0393    6.4593
   -5.7827    3.2200    4.9546
   -4.4905    2.8286    4.2391
   -4.6687    3.0095    2.7324
   -3.4594    2.6433    2.0628
   -2.3557    3.4568    2.4693
   -1.0978    3.0177    1.7213
    0.0366    3.8539    2.1392
    1.2416    3.6496    1.6144
    2.1916    4.3484    1.9632
    1.4433    2.5588    0.5899
    1.3187    1.2826    1.2228
    1.4690    0.1796    0.4591
    1.7037    0.2895   -0.7331
    1.3491   -1.1637    1.0683
    1.0806   -1.4105    2.5027
    1.0342   -2.7123    2.7949
    1.3015   -3.7397    1.3788
    1.4868   -2.2982    0.3687
    1.7515   -2.2988   -0.9755
    1.8801   -3.4504   -1.6283
    1.7612   -4.5156   -1.0249
    2.1660   -3.4493   -3.0804
    2.2966   -4.6841   -3.7272
    2.6393   -4.7481   -5.0830
    2.8680   -3.5774   -5.8154
    2.6862   -2.3406   -5.1851
    2.3149   -2.2806   -3.8366
    3.2973   -3.6691   -7.2603
    4.8209   -3.7061   -7.3359
   -4.7999    3.6828    6.8085
   -5.3584    2.0013    6.6727
   -6.5291    3.3051    6.9677
   -6.5956    2.5862    4.6062
   -6.0152    4.2606    4.7385
   -3.6770    3.4621    4.5861
   -4.2574    1.7878    4.4537
   -5.4816    2.3758    2.3840
   -4.9011    4.0503    2.5165
   -2.1975    3.3459    3.5400
   -2.5684    4.4988    2.2395
   -1.2545    3.1289    0.6505
   -0.8837    1.9760    1.9510
   -0.0983    4.5834    2.8245
    0.6915    2.6504   -0.1912
    2.4351    2.6505    0.1522
    0.9301   -0.6114    3.2134
    0.8399   -3.0820    3.7908
    1.8491   -1.4242   -1.4710
    2.1362   -5.5985   -3.1754
    2.7311   -5.7062   -5.5728
    2.8324   -1.4346   -5.7545
    2.1317   -1.3009   -3.4207
    2.9275   -2.8020   -7.8035
    2.8894   -4.5757   -7.7023
    5.1887   -4.5804   -6.8030
    5.2280   -2.8055   -6.8809
    5.1304   -3.7587   -8.3776
@<BUDE>CONF  39
   -6.1746    3.5886    0.0226
   -5.7531    2.7968   -1.2120
   -4.4645    3.3893   -1.7805
   -3.3568    3.2977   -0.7320
   -3.0921    1.9234   -0.4383
   -2.0602    1.7749    0.5405
   -0.7663    2.3930    0.0129
    0.2944    2.2404    1.0191
    0.2648    2.9686    2.1316
   -0.6494    3.7695    2.3192
    1.3545    2.8118    3.1652
    1.2299    1.5356    3.7981
    1.3802    0.4326    3.0344
    1.6149    0.5425    1.8422
    1.2603   -0.9107    3.6436
    0.9918   -1.1575    5.0780
    0.9454   -2.4593    5.3702
    1.2127   -3.4867    3.9541
    1.3980   -2.0452    2.9440
    1.6627   -2.0458    1.5998
    1.7913   -3.1974    0.9470
    1.6724   -4.2626    1.5504
    2.0772   -3.1963   -0.5051
    2.2078   -4.4311   -1.1519
    2.5505   -4.4951   -2.5077
    2.7792   -3.3244   -3.2401
    2.5974   -2.0876   -2.6098
    2.2261   -2.0276   -1.2613
    3.2085   -3.4161   -4.6850
    4.7321   -3.4531   -4.7606
   -6.3562    4.6244   -0.2563
   -5.3827    3.5464    0.7674
   -7.0847    3.1584    0.4352
   -5.5833    1.7579   -0.9368
   -6.5383    2.8499   -1.9632
   -4.1697    2.8335   -2.6680
   -4.6291    4.4323   -2.0430
   -2.4531    3.7663   -1.1162
   -3.6728    3.8075    0.1758
   -1.9004    0.7179    0.7425
   -2.3547    2.2797    1.4583
   -0.9246    3.4503   -0.1887
   -0.4704    1.8885   -0.9044
    1.0457    1.5829    0.8661
    2.3266    2.8828    2.6819
    1.2620    3.5970    3.9125
    0.8413   -0.3584    5.7887
    0.7511   -2.8290    6.3661
    1.7603   -1.1712    1.1043
    2.0474   -5.3455   -0.6001
    2.6423   -5.4532   -2.9975
    2.7436   -1.1816   -3.1792
    2.0429   -1.0479   -0.8454
    2.8387   -2.5490   -5.2282
    2.8006   -4.3227   -5.1270
    5.0999   -4.3274   -4.2277
    5.1392   -2.5525   -4.3056
    5.0416   -3.5057   -5.8023
@<BUDE>CONF  40
   -3.5097    7.1272    4.6956
   -2.4803    6.9179    5.8024
   -1.0752    6.9501    5.2027
   -0.9343    5.8263    4.1770
    0.3806    5.8565    3.6157
    0.5716    4.8235    2.6455
    0.3831    3.4606    3.3100
    0.5795    2.3988    2.3127
   -0.3366    2.1945    1.3703
   -1.3479    2.8934    1.3328
   -0.1349    1.1037    0.3458
   -0.2595   -0.1725    0.9787
   -0.1092   -1.2755    0.2150
    0.1255   -1.1656   -0.9772
   -0.2291   -2.6188    0.8242
   -0.4976   -2.8656    2.2586
   -0.5440   -4.1674    2.5508
   -0.2767   -5.1948    1.1347
   -0.0914   -3.7533    0.1246
    0.1733   -3.7539   -1.2196
    0.3019   -4.9055   -1.8724
    0.1830   -5.9707   -1.2690
    0.5878   -4.9044   -3.3245
    0.7184   -6.1392   -3.9713
    1.0611   -6.2032   -5.3271
    1.2898   -5.0325   -6.0595
    1.1080   -3.7957   -5.4292
    0.7367   -3.7357   -4.0807
    1.7191   -5.1242   -7.5044
    3.2427   -5.1612   -7.5800
   -3.4210    6.3279    3.9628
   -3.3312    8.0851    4.2116
   -4.5094    7.1177    5.1245
   -2.5763    7.7098    6.5423
   -2.6489    5.9540    6.2779
   -0.9104    7.9084    4.7147
   -0.3398    6.8135    5.9928
   -1.0982    4.8673    4.6640
   -1.6688    5.9624    3.3859
    1.5775    4.8907    2.2363
   -0.1550    4.9390    1.8439
   -0.6227    3.3918    3.7188
    1.1098    3.3436    4.1112
    1.4096    1.8242    2.3425
   -0.8867    1.1953   -0.4353
    0.8569    1.1954   -0.0919
   -0.6481   -2.0665    2.9693
   -0.7383   -4.5371    3.5467
    0.2709   -2.8793   -1.7151
    0.5580   -7.0536   -3.4195
    1.1529   -7.1613   -5.8169
    1.2542   -2.8897   -5.9986
    0.5535   -2.7560   -3.6648
    1.3493   -4.2571   -8.0476
    1.3112   -6.0308   -7.9464
    3.6105   -6.0355   -7.0471
    3.6498   -4.2606   -7.1250
    3.5522   -5.2138   -8.6217
@<BUDE>CONF  41
    2.8941   -2.3598   -0.7785
    3.1968   -1.1443    0.0930
    3.6846    0.0045   -0.7885
    3.9878    1.2216    0.0842
    2.7852    1.6627    0.7197
    1.7885    2.0484   -0.2306
    0.5325    2.5081    0.5080
   -0.4918    2.9045   -0.4688
   -1.6760    3.3416   -0.0497
   -2.5340    3.6735   -0.8660
   -1.9672    3.4303    1.4293
   -2.0743    2.1121    1.9731
   -2.3340    1.9905    3.2923
   -2.4699    2.9873    3.9825
   -2.4539    0.6472    3.9015
   -2.7225    0.4004    5.3359
   -2.7688   -0.9014    5.6281
   -2.5015   -1.9288    4.2120
   -2.3162   -0.4873    3.2019
   -2.0515   -0.4879    1.8577
   -1.9230   -1.6395    1.2049
   -2.0419   -2.7047    1.8083
   -1.6371   -1.6384   -0.2472
   -1.5064   -2.8732   -0.8940
   -1.1637   -2.9372   -2.2498
   -0.9351   -1.7665   -2.9822
   -1.1168   -0.5297   -2.3519
   -1.4881   -0.4697   -1.0034
   -0.5057   -1.8582   -4.4271
    1.0178   -1.8952   -4.5027
    3.8008   -2.6711   -1.2931
    2.1322   -2.0999   -1.5103
    2.5340   -3.1735   -0.1525
    2.2937   -0.8397    0.6178
    3.9689   -1.3989    0.8161
    4.5881   -0.2986   -1.3133
    2.9131    0.2606   -1.5116
    4.7200    0.9518    0.8424
    4.3847    2.0231   -0.5355
    1.5447    1.1996   -0.8660
    2.1670    2.8639   -0.8433
    0.7750    3.3574    1.1432
    0.1525    1.6931    1.1205
   -0.2971    2.8451   -1.4581
   -1.1597    3.9629    1.9273
   -2.9032    3.9629    1.5839
   -2.8730    1.1995    6.0466
   -2.9632   -1.2711    6.6240
   -1.9539    0.3867    1.3622
   -1.6668   -3.7876   -0.3422
   -1.0719   -3.8953   -2.7396
   -0.9706    0.3763   -2.9213
   -1.6714    0.5100   -0.5875
   -0.8756   -0.9911   -4.9703
   -0.9137   -2.7648   -4.8691
    1.3857   -2.7695   -3.9698
    1.4250   -0.9946   -4.0477
    1.3274   -1.9478   -5.5444
@<BUDE>CONF  42
   -1.3450    8.5544    1.1135
   -0.2790    8.4347    2.1989
   -0.3457    7.0427    2.8256
   -1.7212    6.8352    3.4580
   -1.7836    5.5326    4.0446
   -1.5926    4.4996    3.0743
   -1.6701    3.1367    3.7607
   -1.4738    2.0749    2.7634
   -0.2688    1.8706    2.2386
    0.6812    2.5694    2.5874
   -0.0671    0.7798    1.2141
   -0.1917   -0.4964    1.8470
   -0.0414   -1.5994    1.0833
    0.1933   -1.4895   -0.1089
   -0.1613   -2.9427    1.6925
   -0.4298   -3.1895    3.1269
   -0.4762   -4.4913    3.4191
   -0.2089   -5.5187    2.0030
   -0.0236   -4.0772    0.9929
    0.2411   -4.0778   -0.3513
    0.3697   -5.2294   -1.0041
    0.2508   -6.2946   -0.4007
    0.6556   -5.2283   -2.4562
    0.7862   -6.4631   -3.1030
    1.1289   -6.5271   -4.4588
    1.3576   -5.3564   -5.1912
    1.1758   -4.1196   -4.5609
    0.8045   -4.0596   -3.2124
    1.7869   -5.4481   -6.6361
    3.3105   -5.4851   -6.7117
   -2.3291    8.4139    1.5556
   -1.1758    7.7936    0.3545
   -1.2887    9.5408    0.6581
    0.7049    8.5874    1.7602
   -0.4554    9.1859    2.9659
   -0.1834    6.2901    2.0571
    0.4221    6.9519    3.5911
   -1.8845    7.5870    4.2275
   -2.4899    6.9251    2.6933
   -0.6165    4.6151    2.6080
   -2.3684    4.5669    2.3145
   -2.6462    3.0197    4.2267
   -0.8942    3.0679    4.5203
   -2.2532    1.5004    2.4762
   -0.8189    0.8714    0.4330
    0.9247    0.8715    0.7764
   -0.5803   -2.3904    3.8376
   -0.6705   -4.8610    4.4150
    0.3387   -3.2032   -0.8468
    0.6258   -7.3775   -2.5512
    1.2207   -7.4852   -4.9486
    1.3220   -3.2136   -5.1303
    0.6213   -3.0799   -2.7965
    1.4171   -4.5810   -7.1793
    1.3790   -6.3547   -7.0781
    3.6783   -6.3594   -6.1788
    3.7176   -4.5845   -6.2567
    3.6200   -5.5377   -7.7534
@<BUDE>CONF  43
   -6.6220    5.4130    3.9931
   -5.2721    4.7068    3.9069
   -5.0870    4.1331    2.5028
   -3.7352    3.4260    2.4166
   -3.5621    2.8891    1.1025
   -2.3098    2.2132    0.9618
   -1.1692    3.1984    1.2134
    0.1181    2.5035    1.0687
    0.5449    2.1395   -0.1371
   -0.1366    2.3838   -1.1313
    1.8673    1.4257   -0.2857
    1.7602    0.1075    0.2581
    1.5005   -0.0141    1.5773
    1.3647    0.9827    2.2675
    1.3806   -1.3574    2.1865
    1.1121   -1.6042    3.6209
    1.0657   -2.9060    3.9131
    1.3330   -3.9334    2.4970
    1.5183   -2.4919    1.4869
    1.7830   -2.4925    0.1427
    1.9116   -3.6441   -0.5101
    1.7927   -4.7093    0.0933
    2.1975   -3.6430   -1.9622
    2.3281   -4.8778   -2.6090
    2.6708   -4.9418   -3.9648
    2.8995   -3.7711   -4.6972
    2.7177   -2.5343   -4.0669
    2.3464   -2.4743   -2.7184
    3.3288   -3.8628   -6.1421
    4.8524   -3.8998   -6.2177
   -7.4180    4.6976    3.7971
   -6.6609    6.2110    3.2546
   -6.7480    5.8330    4.9887
   -4.4758    5.4185    4.1151
   -5.2372    3.8994    4.6354
   -5.8822    3.4208    2.2937
   -5.1208    4.9398    1.7735
   -2.9390    4.1376    2.6247
   -3.7006    2.6186    3.1450
   -2.2251    1.8109   -0.0455
   -2.2522    1.4009    1.6834
   -1.2523    3.6007    2.2208
   -1.2252    4.0107    0.4919
    0.6786    2.3024    1.8845
    2.1296    1.3623   -1.3397
    2.6391    1.9760    0.2483
    0.9616   -0.8051    4.3316
    0.8714   -3.2757    4.9090
    1.8806   -1.6179   -0.3528
    2.1677   -5.7922   -2.0572
    2.7626   -5.8999   -4.4546
    2.8639   -1.6283   -4.6363
    2.1632   -1.4946   -2.3025
    2.9590   -2.9957   -6.6853
    2.9209   -4.7694   -6.5841
    5.2202   -4.7741   -5.6848
    5.2595   -2.9992   -5.7627
    5.1619   -3.9524   -7.2594
@<BUDE>CONF  44
    4.7701    5.7633    5.1616
    4.1278    4.4291    5.5302
    2.8281    4.2565    4.7456
    2.1849    2.9205    5.1146
    0.9685    2.7590    4.3803
    1.1929    2.7563    2.9680
   -0.1399    2.5810    2.2418
    0.0907    2.5782    0.7900
   -0.9345    2.4376   -0.0455
   -0.7429    2.4350   -1.2604
   -2.3346    2.2808    0.4979
   -2.4592    1.0046    1.1308
   -2.3089   -0.0984    0.3671
   -2.0742    0.0115   -0.8251
   -2.4288   -1.4417    0.9763
   -2.6973   -1.6885    2.4107
   -2.7437   -2.9903    2.7029
   -2.4764   -4.0177    1.2868
   -2.2911   -2.5762    0.2767
   -2.0264   -2.5768   -1.0675
   -1.8978   -3.7284   -1.7203
   -2.0167   -4.7936   -1.1169
   -1.6119   -3.7273   -3.1724
   -1.4813   -4.9621   -3.8192
   -1.1386   -5.0261   -5.1750
   -0.9099   -3.8554   -5.9074
   -1.0917   -2.6186   -5.2771
   -1.4630   -2.5586   -3.9286
   -0.4806   -3.9471   -7.3523
    1.0430   -3.9841   -7.4279
    4.0926    6.5747    5.4194
    4.9724    5.7847    4.0929
    5.7023    5.8802    5.7103
    4.8096    3.6175    5.2844
    3.9120    4.4119    6.5965
    2.1452    5.0670    4.9910
    3.0427    4.2726    3.6791
    2.8666    2.1089    4.8689
    1.9691    2.9035    6.1809
    1.8579    1.9356    2.7072
    1.6460    3.6996    2.6703
   -0.8055    3.4016    2.5010
   -0.5936    1.6376    2.5380
    1.0272    2.6830    0.4266
   -2.5324    3.0660    1.2245
   -3.0509    2.3518   -0.3179
   -2.8478   -0.8894    3.1214
   -2.9380   -3.3600    3.6988
   -1.9288   -1.7022   -1.5630
   -1.6417   -5.8765   -3.2674
   -1.0468   -5.9842   -5.6648
   -0.9455   -1.7126   -5.8465
   -1.6462   -1.5789   -3.5127
   -0.8504   -3.0800   -7.8955
   -0.8885   -4.8537   -7.7943
    1.4108   -4.8584   -6.8950
    1.4501   -3.0835   -6.9729
    1.3525   -4.0367   -8.4696
@<BUDE>CONF  45
   -0.2579    6.4394   -3.3540
   -1.3431    5.6113   -4.0361
   -1.4148    4.2312   -3.3841
   -0.0724    3.5203   -3.5498
   -0.1395    2.2288   -2.9396
   -0.4152    2.3128   -1.5389
   -0.4741    0.9054   -0.9470
   -0.7576    0.9918    0.4928
    0.1793    1.4289    1.3295
    1.2827    1.7609    0.8994
   -0.1119    1.5176    2.8085
   -0.2190    0.1994    3.3523
   -0.4787    0.0778    4.6715
   -0.6145    1.0746    5.3617
   -0.5986   -1.2655    5.2807
   -0.8671   -1.5123    6.7151
   -0.9135   -2.8141    7.0073
   -0.6462   -3.8415    5.5912
   -0.4609   -2.4000    4.5811
   -0.1962   -2.4006    3.2369
   -0.0676   -3.5522    2.5841
   -0.1865   -4.6174    3.1875
    0.2183   -3.5511    1.1320
    0.3489   -4.7859    0.4852
    0.6916   -4.8499   -0.8706
    0.9203   -3.6792   -1.6030
    0.7385   -2.4424   -0.9727
    0.3672   -2.3824    0.3758
    1.3496   -3.7709   -3.0479
    2.8732   -3.8079   -3.1235
    0.7034    5.9437   -3.4718
   -0.4889    6.5371   -2.2953
   -0.2160    7.4266   -3.8093
   -2.3031    6.1122   -3.9297
   -1.1060    5.5009   -5.0922
   -1.6380    4.3409   -2.3250
   -2.1967    3.6442   -3.8614
    0.1517    3.4093   -4.6086
    0.7102    4.1061   -3.0722
   -1.3707    2.8102   -1.3859
    0.3724    2.8798   -1.0470
    0.4811    0.4073   -1.0986
   -1.2619    0.3377   -1.4376
   -1.6633    0.7194    0.8471
    0.6956    2.0502    3.3065
   -1.0479    2.0502    2.9631
   -1.0176   -0.7132    7.4258
   -1.1078   -3.1838    8.0032
   -0.0986   -1.5260    2.7414
    0.1885   -5.7003    1.0370
    0.7834   -5.8080   -1.3604
    0.8847   -1.5364   -1.5421
    0.1840   -1.4027    0.7917
    0.9798   -2.9038   -3.5911
    0.9417   -4.6775   -3.4899
    3.2410   -4.6822   -2.5906
    3.2803   -2.9073   -2.6685
    3.1827   -3.8605   -4.1652
@<BUDE>CONF  46
   -3.7454    5.2867   -2.3942
   -3.9544    3.9274   -3.0555
   -4.3214    2.8949   -1.9905
   -3.1829    2.7826   -0.9776
   -3.5263    1.8163    0.0190
   -2.4944    1.6678    0.9979
   -2.2692    3.0030    1.7058
   -1.2085    2.8504    2.7119
    0.0569    2.7097    2.3274
    0.3402    2.7073    1.1306
    1.1466    2.5529    3.3610
    1.0220    1.2767    3.9939
    1.1723    0.1737    3.2302
    1.4070    0.2836    2.0380
    1.0524   -1.1696    3.8394
    0.7839   -1.4164    5.2738
    0.7375   -2.7182    5.5660
    1.0048   -3.7456    4.1499
    1.1901   -2.3041    3.1398
    1.4548   -2.3047    1.7956
    1.5834   -3.4563    1.1428
    1.4645   -4.5215    1.7462
    1.8693   -3.4552   -0.3093
    1.9999   -4.6900   -0.9561
    2.3426   -4.7540   -2.3119
    2.5713   -3.5833   -3.0443
    2.3895   -2.3465   -2.4140
    2.0182   -2.2865   -1.0655
    3.0006   -3.6750   -4.4892
    4.5242   -3.7120   -4.5648
   -2.9320    5.2181   -1.6748
   -4.6583    5.5846   -1.8828
   -3.4973    6.0246   -3.1540
   -4.7594    3.9978   -3.7841
   -3.0376    3.6217   -3.5553
   -5.2303    3.2065   -1.4804
   -4.4828    1.9280   -2.4624
   -2.2733    2.4702   -1.4865
   -3.0210    3.7488   -0.5044
   -1.5729    1.3567    0.5101
   -2.7908    0.9168    1.7272
   -3.1898    3.3147    2.1947
   -1.9720    3.7546    0.9776
   -1.4400    2.8522    3.6950
    2.1187    2.6239    2.8777
    1.0541    3.3381    4.1083
    0.6334   -0.6173    5.9845
    0.5432   -3.0879    6.5619
    1.5524   -1.4301    1.3001
    1.8395   -5.6044   -0.4043
    2.4344   -5.7121   -2.8017
    2.5357   -1.4405   -2.9834
    1.8350   -1.3068   -0.6496
    2.6308   -2.8079   -5.0324
    2.5927   -4.5816   -4.9312
    4.8920   -4.5863   -4.0319
    4.9313   -2.8114   -4.1098
    4.8337   -3.7646   -5.6065
@<BUDE>CONF  47
   -3.5169    6.5340    5.6059
   -3.3347    5.4620    4.5353
   -2.9219    4.1479    5.1968
   -1.5967    4.3430    5.9322
   -0.5743    4.6771    4.9898
   -0.3833    3.6441    4.0195
    0.7177    4.0593    3.0449
    0.9141    2.9975    2.0476
   -0.0020    2.7932    1.1052
   -1.0133    3.4921    1.0677
    0.1997    1.7024    0.0807
    0.0751    0.4262    0.7136
    0.2254   -0.6768   -0.0501
    0.4601   -0.5669   -1.2423
    0.1055   -2.0201    0.5591
   -0.1630   -2.2669    1.9935
   -0.2094   -3.5687    2.2857
    0.0579   -4.5961    0.8696
    0.2432   -3.1546   -0.1405
    0.5079   -3.1552   -1.4847
    0.6365   -4.3068   -2.1375
    0.5176   -5.3720   -1.5341
    0.9224   -4.3057   -3.5896
    1.0530   -5.5405   -4.2364
    1.3957   -5.6045   -5.5922
    1.6244   -4.4338   -6.3246
    1.4426   -3.1970   -5.6943
    1.0713   -3.1370   -4.3458
    2.0537   -4.5255   -7.7695
    3.5773   -4.5625   -7.8451
   -2.5762    6.6844    6.1315
   -4.2804    6.2144    6.3120
   -3.8238    7.4661    5.1363
   -4.2715    5.3196    4.0007
   -2.5614    5.7741    3.8365
   -3.6878    3.8419    5.9061
   -2.8038    3.3795    4.4356
   -1.6984    5.1484    6.6566
   -1.3280    3.4229    6.4469
   -1.3098    3.4839    3.4721
   -0.0941    2.7231    4.5215
    1.6450    4.2190    3.5910
    0.4293    4.9797    2.5417
    1.7442    2.4229    2.0774
   -0.5521    1.7940   -0.7004
    1.1915    1.7941   -0.3570
   -0.3135   -1.4678    2.7042
   -0.4037   -3.9384    3.2816
    0.6055   -2.2806   -1.9802
    0.8926   -6.4549   -3.6846
    1.4875   -6.5626   -6.0820
    1.5888   -2.2910   -6.2637
    0.8881   -2.1573   -3.9299
    1.6839   -3.6584   -8.3127
    1.6458   -5.4321   -8.2115
    3.9451   -5.4368   -7.3122
    3.9844   -3.6619   -7.3901
    3.8868   -4.6151   -8.8868
@<BUDE>CONF  48
    1.2972    6.3523   -3.2548
    1.3148    6.3815   -1.7292
    1.0858    4.9698   -1.1910
    2.2042    4.0512   -1.6812
    1.9899    2.7301   -1.1775
    0.7490    2.1807   -1.6285
    0.5791    0.7733   -1.0584
    0.2957    0.8597    0.3814
   -0.8885    1.2968    0.8005
   -1.7465    1.6287   -0.0158
   -1.1797    1.3855    2.2795
   -1.2868    0.0673    2.8233
   -1.5465   -0.0543    4.1425
   -1.6823    0.9425    4.8327
   -1.6664   -1.3976    4.7517
   -1.9349   -1.6444    6.1861
   -1.9813   -2.9462    6.4783
   -1.7140   -3.9736    5.0622
   -1.5287   -2.5321    4.0521
   -1.2640   -2.5327    2.7079
   -1.1354   -3.6843    2.0551
   -1.2543   -4.7495    2.6585
   -0.8495   -3.6832    0.6030
   -0.7189   -4.9180   -0.0438
   -0.3762   -4.9820   -1.3996
   -0.1475   -3.8113   -2.1320
   -0.3293   -2.5745   -1.5017
   -0.7006   -2.5145   -0.1532
    0.2818   -3.9030   -3.5769
    1.8054   -3.9400   -3.6525
    0.3282    5.9969   -3.5990
    2.0774    5.6840   -3.6131
    1.4736    7.3551   -3.6381
    2.2790    6.7486   -1.3840
    0.5258    7.0385   -1.3692
    1.0856    4.9913   -0.1033
    0.1281    4.5961   -1.5472
    2.2049    4.0282   -2.7690
    3.1624    4.4235   -1.3250
    0.7460    2.1338   -2.7154
   -0.0714    2.8099   -1.2897
    1.4941    0.2055   -1.2138
   -0.2474    0.2752   -1.5609
    0.9995    0.5873    1.0526
   -0.3722    1.9181    2.7775
   -2.1157    1.9181    2.4341
   -2.0854   -0.8453    6.8968
   -2.1756   -3.3159    7.4742
   -1.1664   -1.6581    2.2124
   -0.8793   -5.8324    0.5080
   -0.2844   -5.9401   -1.8894
   -0.1831   -1.6685   -2.0711
   -0.8838   -1.5348    0.2627
   -0.0880   -3.0359   -4.1201
   -0.1261   -4.8096   -4.0189
    2.1732   -4.8143   -3.1196
    2.2125   -3.0394   -3.1975
    2.1149   -3.9926   -4.6942
@<BUDE>CONF  49
   -5.4682    1.2518    4.8124
   -4.7889    2.4650    5.4412
   -3.2732    2.3258    5.3061
   -2.8986    2.2608    3.8261
   -3.2654    3.4869    3.1881
   -2.9376    3.4842    1.7961
   -1.4290    3.3089    1.6294
   -1.0921    3.3062    0.1985
    0.1733    3.1655   -0.1860
    0.4566    3.1631   -1.3828
    1.2630    3.0087    0.8476
    1.1384    1.7325    1.4805
    1.2887    0.6295    0.7168
    1.5234    0.7394   -0.4754
    1.1688   -0.7138    1.3260
    0.9003   -0.9606    2.7604
    0.8539   -2.2624    3.0526
    1.1212   -3.2898    1.6365
    1.3065   -1.8483    0.6264
    1.5712   -1.8489   -0.7178
    1.6998   -3.0005   -1.3706
    1.5809   -4.0657   -0.7672
    1.9857   -2.9994   -2.8227
    2.1163   -4.2342   -3.4695
    2.4590   -4.2982   -4.8253
    2.6877   -3.1275   -5.5577
    2.5059   -1.8907   -4.9274
    2.1346   -1.8307   -3.5789
    3.1170   -3.2192   -7.0026
    4.6406   -3.2562   -7.0782
   -5.1496    0.3496    5.3303
   -5.1906    1.1852    3.7626
   -6.5477    1.3573    4.8967
   -5.1163    3.3691    4.9322
   -5.0545    2.5247    6.4946
   -2.7873    3.1841    5.7651
   -2.9464    1.4146    5.8026
   -1.8255    2.1092    3.7293
   -3.4264    1.4349    3.3538
   -3.2441    4.4275    1.3489
   -3.4542    2.6635    1.3029
   -1.1214    2.3655    2.0755
   -0.9113    4.1295    2.1216
   -1.8209    3.4111   -0.4928
    2.2351    3.0797    0.3643
    1.1705    3.7939    1.5949
    0.7498   -0.1615    3.4711
    0.6596   -2.6321    4.0485
    1.6688   -0.9743   -1.2133
    1.9559   -5.1486   -2.9177
    2.5508   -5.2563   -5.3151
    2.6521   -0.9847   -5.4968
    1.9514   -0.8510   -3.1630
    2.7472   -2.3521   -7.5458
    2.7091   -4.1258   -7.4446
    5.0084   -4.1305   -6.5453
    5.0477   -2.3556   -6.6232
    4.9501   -3.3088   -8.1199
@<BUDE>CONF  50
   -0.8341   -0.3716   -3.8547
   -2.1865   -0.6750   -3.2164
   -2.4005    0.2463   -2.0163
   -2.3893    1.7011   -2.4838
   -2.5896    2.5633   -1.3607
   -1.5576    2.4148   -0.3819
   -1.8275    3.3591    0.7886
   -0.7668    3.2065    1.7948
   -0.7964    3.9347    2.9073
   -1.7106    4.7356    3.0949
    0.2933    3.7779    3.9409
    0.1687    2.5017    4.5738
    0.3190    1.3987    3.8101
    0.5537    1.5086    2.6179
    0.1991    0.0554    4.4193
   -0.0694   -0.1914    5.8537
   -0.1158   -1.4932    6.1459
    0.1515   -2.5206    4.7298
    0.3368   -1.0791    3.7197
    0.6015   -1.0797    2.3755
    0.7301   -2.2313    1.7227
    0.6112   -3.2965    2.3261
    1.0160   -2.2302    0.2706
    1.1466   -3.4650   -0.3762
    1.4893   -3.5290   -1.7320
    1.7180   -2.3583   -2.4644
    1.5362   -1.1215   -1.8341
    1.1649   -1.0615   -0.4856
    2.1473   -2.4500   -3.9093
    3.6709   -2.4870   -3.9849
   -0.0432   -0.5490   -3.1289
   -0.8089    0.6687   -4.1723
   -0.6876   -1.0183   -4.7171
   -2.9774   -0.5100   -3.9451
   -2.2079   -1.7113   -2.8856
   -3.3589    0.0225   -1.5528
   -1.6023    0.0923   -1.2932
   -1.4309    1.9265   -2.9469
   -3.1876    1.8565   -3.2065
   -0.5956    2.6575   -0.8284
   -1.5427    1.3879   -0.0226
   -2.7889    3.1169    1.2366
   -1.8419    4.3864    0.4307
   -0.0155    2.5490    1.6418
    1.2654    3.8489    3.4576
    0.2008    4.5631    4.6882
   -0.2199    0.6077    6.5644
   -0.3101   -1.8629    7.1418
    0.6991   -0.2051    1.8800
    0.9862   -4.3794    0.1756
    1.5811   -4.4871   -2.2218
    1.6824   -0.2155   -2.4035
    0.9817   -0.0818   -0.0697
    1.7775   -1.5829   -4.4525
    1.7394   -3.3566   -4.3513
    4.0387   -3.3613   -3.4520
    4.0780   -1.5864   -3.5299
    3.9804   -2.5396   -5.0266
