@<TRIPOS>MOLECULE
ZINC61597528
   42    43     0     0     0
SMALL
USER_CHARGES

@<TRIPOS>ATOM
      1 C1          3.8708    7.5428   -0.0081 C.3       1 <0>         0.0268
      2 O1          3.8902    6.1139   -0.0160 O.3       1 <0>        -0.3133
      3 C2          2.6879    5.4806   -0.0079 C.ar      1 <0>         0.1677
      4 C3          1.5133    6.2200    0.0015 C.ar      1 <0>        -0.2433
      5 C4          0.2907    5.5767    0.0098 C.ar      1 <0>        -0.0391
      6 C5          0.2339    4.1959    0.0091 C.ar      1 <0>        -0.2473
      7 C6          1.4052    3.4522   -0.0003 C.ar      1 <0>         0.1672
      8 C7          2.6334    4.0955   -0.0148 C.ar      1 <0>        -0.1836
      9 O2          1.3487    2.0944   -0.0009 O.3       1 <0>        -0.2863
     10 C8          0.0496    1.4992    0.0085 C.3       1 <0>         0.0425
     11 C9          0.1847   -0.0017    0.0063 C.2       1 <0>         0.5165
     12 O3          1.2851   -0.5115   -0.0024 O.2       1 <0>        -0.5075
     13 N1         -0.9174   -0.7776    0.0141 N.am      1 <0>        -0.7277
     14 C10        -0.7860   -2.2367    0.0120 C.3       1 <0>         0.0923
     15 C11        -2.1770   -2.8740    0.0220 C.3       1 <0>         0.1538
     16 N2         -2.0456   -4.3331    0.0199 N.pl3     1 <0>        -0.9868
     17 C12        -1.8663   -5.2070   -1.1535 C.3       1 <0>         0.0701
     18 C13        -1.0768   -6.4746   -0.7769 C.3       1 <0>        -0.1323
     19 C14        -1.7201   -6.9714    0.5528 C.3       1 <0>        -0.5903
     20 S1         -2.0611   -5.3505    1.3520 S.o2      1 <0>         2.5602
     21 O4         -0.9618   -4.9420    2.1544 O.2       1 <0>        -0.9507
     22 O5         -3.3920   -5.3061    1.8480 O.2       1 <0>        -0.9534
     23 H1          4.8934    7.9201   -0.0159 H         1 <0>         0.1028
     24 H2          3.3436    7.9039   -0.8912 H         1 <0>         0.0577
     25 H3          3.3606    7.8943    0.8887 H         1 <0>         0.0578
     26 H4          1.5552    7.2992    0.0028 H         1 <0>         0.1309
     27 H5         -0.6221    6.1539    0.0172 H         1 <0>         0.1300
     28 H6         -0.7231    3.6953    0.0163 H         1 <0>         0.1298
     29 H7          3.5462    3.5184   -0.0267 H         1 <0>         0.1413
     30 H8         -0.4880    1.8143    0.9028 H         1 <0>         0.0972
     31 H9         -0.5015    1.8157   -0.8771 H         1 <0>         0.0968
     32 H10        -1.7975   -0.3698    0.0210 H         1 <0>         0.4034
     33 H11        -0.2484   -2.5518   -0.8824 H         1 <0>         0.0764
     34 H12        -0.2350   -2.5531    0.8976 H         1 <0>         0.0833
     35 H13        -2.7145   -2.5588    0.9163 H         1 <0>         0.0878
     36 H14        -2.7280   -2.5575   -0.8636 H         1 <0>         0.0899
     37 H15        -2.8443   -5.4950   -1.5391 H         1 <0>         0.0810
     38 H16        -1.3237   -4.6629   -1.9265 H         1 <0>         0.0967
     39 H17        -1.1821   -7.2312   -1.5544 H         1 <0>         0.1151
     40 H18        -0.0251   -6.2336   -0.6219 H         1 <0>         0.0972
     41 H19        -2.6389   -7.5274    0.3660 H         1 <0>         0.1443
     42 H20        -1.0150   -7.5602    1.1394 H         1 <0>         0.1447
@<TRIPOS>BOND
     1    1    2 1
     2    1   23 1
     3    1   24 1
     4    1   25 1
     5    2    3 1
     6    3    8 ar
     7    3    4 ar
     8    4    5 ar
     9    4   26 1
    10    5    6 ar
    11    5   27 1
    12    6    7 ar
    13    6   28 1
    14    7    8 ar
    15    7    9 1
    16    8   29 1
    17    9   10 1
    18   10   11 1
    19   10   30 1
    20   10   31 1
    21   11   12 2
    22   11   13 am
    23   13   14 1
    24   13   32 1
    25   14   15 1
    26   14   33 1
    27   14   34 1
    28   15   16 1
    29   15   35 1
    30   15   36 1
    31   16   20 1
    32   16   17 1
    33   17   18 1
    34   17   37 1
    35   17   38 1
    36   18   19 1
    37   18   39 1
    38   18   40 1
    39   19   20 1
    40   19   41 1
    41   19   42 1
    42   20   21 2
    43   20   22 2
@<BUDE>CONF  1
   -3.4183    3.7448    0.2904
   -4.5304    2.8482    0.2240
   -4.2698    1.5100    0.0896
   -5.0607    0.6220    0.8281
   -4.8755   -0.7612    0.7510
   -3.8716   -1.2775   -0.0769
   -3.0616   -0.3996   -0.8069
   -3.2695    0.9830   -0.7359
   -2.0578   -0.8967   -1.5958
   -1.2840   -1.9871   -1.0888
   -0.5907   -1.5624    0.1836
   -0.9425   -2.0342    1.2636
    0.4010   -0.6773    0.1365
    1.0759   -0.2638    1.3753
    2.1680    0.7523    1.0444
    3.2369    0.0908    0.2823
    4.2641   -0.7499    0.9138
    4.8931   -1.4911   -0.2806
    4.9684   -0.4786   -1.4386
    3.3150    0.2577   -1.4321
    2.3691   -0.6349   -2.0267
    3.3805    1.6410   -1.7889
   -2.8382    3.6705   -0.6271
   -3.7812    4.7635    0.4093
   -2.7910    3.4812    1.1392
   -5.8305    1.0197    1.4728
   -5.5007   -1.4271    1.3273
   -3.7207   -2.3441   -0.1542
   -2.6216    1.5961   -1.3448
   -0.5395   -2.2784   -1.8268
   -1.9384   -2.8309   -0.8802
    0.6907   -0.2892   -0.7497
    1.5229   -1.1331    1.8530
    0.3521    0.1893    2.0495
    2.5786    1.1575    1.9669
    1.7453    1.5592    0.4495
    4.9872   -0.0955    1.3961
    3.8556   -1.4425    1.6468
    4.2388   -2.3080   -0.5773
    5.8716   -1.8978   -0.0337
    5.6948    0.3017   -1.2210
    5.1867   -0.9276   -2.4053
@<BUDE>CONF  2
   -1.3249    5.5887    1.9411
   -0.3545    4.6367    2.3849
   -0.7876    3.3744    2.6944
   -0.2315    2.7609    3.8232
   -0.6156    1.4780    4.2231
   -1.5734    0.7809    3.4772
   -2.1241    1.3756    2.3358
   -1.7453    2.6688    1.9563
   -3.0397    0.6872    1.5843
   -2.8124   -0.7070    1.3620
   -1.5050   -0.8924    0.6296
   -0.5417   -1.3939    1.2068
   -1.3951   -0.5131   -0.6404
   -0.1222   -0.6936   -1.3533
    0.1206   -2.1833   -1.5909
    1.3934   -2.3639   -2.3038
    2.6543   -2.6804   -1.6177
    3.7147   -2.4533   -2.7111
    3.1082   -2.9704   -4.0288
    1.4548   -2.2341   -4.0223
    0.5089   -3.1267   -4.6169
    1.5203   -0.8508   -4.3791
   -2.0681    5.7387    2.7214
   -0.8316    6.5334    1.7227
   -1.8120    5.2168    1.0421
    0.5130    3.2949    4.3950
   -0.1754    1.0265    5.0999
   -1.8873   -0.2080    3.7772
   -2.2296    3.0712    1.0789
   -3.6237   -1.1165    0.7638
   -2.7686   -1.2249    2.3179
   -2.1855   -0.1011   -1.1154
    0.6900   -0.2852   -0.7557
   -0.1651   -0.1767   -2.3098
   -0.6908   -2.5927   -2.1893
    0.1644   -2.7013   -0.6352
    2.7784   -1.9772   -0.7968
    2.6855   -3.6975   -1.2325
    4.5970   -3.0465   -2.4801
    4.0046   -1.4070   -2.7815
    3.6565   -2.5807   -4.8839
    3.0470   -4.0548   -4.0921
@<BUDE>CONF  3
   -5.0556   -0.7892    0.1589
   -5.3579    0.5942   -0.0408
   -4.3111    1.4682   -0.1715
   -4.4248    2.7098    0.4651
   -3.4061    3.6641    0.3958
   -2.2445    3.3813   -0.3326
   -2.1258    2.1506   -0.9891
   -3.1449    1.1954   -0.8963
   -1.0047    1.8793   -1.7284
    0.2604    2.2909   -1.2040
    0.5035    1.6043    0.1187
    0.4838    2.2541    1.1627
    0.7392    0.2958    0.1548
    0.9758   -0.3727    1.4425
    1.2186   -1.8624    1.2049
    2.4914   -2.0430    0.4920
    3.7523   -2.3595    1.1781
    4.8127   -2.1324    0.0847
    4.2062   -2.6495   -1.2330
    2.5528   -1.9132   -1.2265
    1.6069   -2.8058   -1.8211
    2.6183   -0.5299   -1.5833
   -4.4858   -0.9061    1.0784
   -5.9818   -1.3554    0.2309
   -4.4695   -1.1566   -0.6808
   -5.3238    2.9318    1.0210
   -3.5147    4.6138    0.8985
   -1.4445    4.1045   -0.3894
   -2.9728    0.2607   -1.4093
    0.2596    3.3690   -1.0575
    1.0489    2.0198   -1.9029
    0.7556   -0.2389   -0.7019
    0.1057   -0.2454    2.0832
    1.8484    0.0641    1.9236
    0.4072   -2.2718    0.6065
    1.2624   -2.3804    2.1606
    3.8764   -1.6563    1.9990
    3.7835   -3.3766    1.5633
    5.6950   -2.7256    0.3157
    5.1026   -1.0861    0.0143
    4.7545   -2.2598   -2.0881
    4.1450   -3.7339   -1.2963
@<BUDE>CONF  4
   -4.1882    2.9432   -0.0268
   -3.5201    4.0380    0.6055
   -2.1983    3.8831    0.9305
   -1.7728    4.3964    2.1614
   -0.4457    4.2798    2.5838
    0.4876    3.6424    1.7577
    0.0792    3.1406    0.5162
   -1.2571    3.2466    0.1127
    0.9937    2.5424   -0.3101
    1.9693    1.6805    0.2816
    1.2728    0.5315    0.9706
    1.2732    0.4583    2.1983
    0.6584   -0.4020    0.2494
   -0.0197   -1.5205    0.9202
   -0.6391   -2.4424   -0.1291
    0.4298   -3.1039   -0.8912
    1.4570   -3.9446   -0.2597
    2.0860   -4.6858   -1.4541
    2.1613   -3.6733   -2.6121
    0.5079   -2.9370   -2.6056
   -0.4380   -3.8296   -3.2002
    0.5734   -1.5537   -2.9624
   -4.1688    2.0778    0.6323
   -5.2200    3.2194   -0.2336
   -3.6831    2.7008   -0.9594
   -2.4904    4.8950    2.7961
   -0.1414    4.6803    3.5395
    1.5153    3.5367    2.0726
   -1.5028    2.8158   -0.8467
    2.5535    2.2389    1.0100
    2.6284    1.2926   -0.4923
    0.6574   -0.3428   -0.7588
   -0.8022   -1.1340    1.5698
    0.7014   -2.0796    1.5129
   -1.2581   -1.8576   -0.8064
   -1.2510   -3.1948    0.3641
    2.1801   -3.2902    0.2226
    1.0485   -4.6372    0.4733
    1.4317   -5.5027   -1.7508
    3.0645   -5.0925   -1.2072
    2.8877   -2.8930   -2.3945
    2.3796   -4.1223   -3.5788
@<BUDE>CONF  5
   -4.3193    3.2119   -0.1236
   -5.1662    2.0861    0.1216
   -4.5864    0.8462    0.1782
   -5.0484   -0.0371    1.1611
   -4.5242   -1.3260    1.2920
   -3.5068   -1.7478    0.4278
   -3.0230   -0.8681   -0.5478
   -3.5695    0.4138   -0.6813
   -2.0069   -1.2639   -1.3771
   -0.9848   -0.3129   -1.6868
   -0.2916    0.1118   -0.4144
   -0.4472    1.2515    0.0208
    0.4881   -0.7472    0.2362
    1.1630   -0.3337    1.4750
    2.2551    0.6824    1.1441
    3.3240    0.0209    0.3820
    4.3512   -0.8198    1.0135
    4.9802   -1.5610   -0.1809
    5.0555   -0.5485   -1.3389
    3.4021    0.1878   -1.3324
    2.4562   -0.7048   -1.9270
    3.4676    1.5711   -1.6892
   -3.8313    3.0944   -1.0889
   -4.9173    4.1208   -0.1271
   -3.5662    3.2756    0.6589
   -5.8280    0.2900    1.8332
   -4.8993   -1.9913    2.0556
   -3.0964   -2.7434    0.5102
   -3.1623    1.0277   -1.4710
   -1.4307    0.5573   -2.1639
   -0.2599   -0.7652   -2.3604
    0.6166   -1.6835   -0.1202
    1.6100   -1.2030    1.9527
    0.4392    0.1194    2.1492
    2.6657    1.0876    2.0666
    1.8324    1.4893    0.5492
    5.0743   -0.1654    1.4958
    3.9427   -1.5124    1.7465
    4.3259   -2.3779   -0.4776
    5.9587   -1.9677    0.0660
    5.7819    0.2318   -1.1213
    5.2738   -0.9975   -2.3056
@<BUDE>CONF  6
   -4.4028   -3.4896    2.3098
   -3.0361   -3.3500    2.7066
   -2.5605   -2.0866    2.9395
   -1.7060   -1.9112    4.0344
   -1.1642   -0.6615    4.3476
   -1.4857    0.4475    3.5560
   -2.3535    0.2895    2.4689
   -2.8746   -0.9711    2.1541
   -2.6961    1.3763    1.7083
   -1.6740    2.3272    1.3986
   -0.5761    1.6477    0.6158
    0.5249    1.4634    1.1321
   -0.7996    1.2484   -0.6331
    0.2693    0.5870   -1.3952
    1.3614    1.6031   -1.7261
    2.4303    0.9416   -2.4882
    3.4575    0.1009   -1.8567
    4.0865   -0.6403   -3.0511
    4.1618    0.3722   -4.2091
    2.5084    1.1085   -4.2026
    1.5625    0.2159   -4.7972
    2.5739    2.4918   -4.5594
   -4.5637   -2.9604    1.3729
   -4.6350   -4.5440    2.1759
   -5.0478   -3.0705    3.0792
   -1.4634   -2.7647    4.6501
   -0.5041   -0.5513    5.1951
   -1.0692    1.4186    3.7793
   -3.5179   -1.0202    1.2880
   -1.2634    2.7326    2.3210
   -2.0968    3.1341    0.8036
   -1.7033    1.3993   -1.0581
   -0.1400    0.1819   -2.3183
    0.6934   -0.2197   -0.8009
    1.7720    2.0083   -0.8036
    0.9387    2.4100   -2.3210
    4.1806    0.7553   -1.3744
    3.0490   -0.5917   -1.1237
    3.4322   -1.4572   -3.3478
    5.0650   -1.0470   -2.8042
    4.8882    1.1525   -3.9915
    4.3801   -0.0768   -5.1758
@<BUDE>CONF  7
    1.6547    3.2803    4.8227
    1.6398    1.8684    4.5964
    0.4708    1.2991    4.1648
    0.1132    0.0636    4.7173
   -1.0643   -0.5912    4.3459
   -1.9073   -0.0068    3.3931
   -1.5523    1.2198    2.8193
   -0.3798    1.8750    3.2137
   -2.3575    1.7826    1.8644
   -2.9373    0.9199    0.8824
   -1.8393    0.2404    0.0995
   -1.6404   -0.9654    0.2373
   -1.0867    0.9465   -0.7395
   -0.0178    0.2850   -1.5017
   -0.6372   -0.6369   -2.5510
    0.4317   -1.2984   -3.3131
    1.4589   -2.1391   -2.6816
    2.0879   -2.8803   -3.8760
    2.1632   -1.8678   -5.0340
    0.5098   -1.1315   -5.0275
   -0.4361   -2.0241   -5.6221
    0.5753    0.2518   -5.3843
    0.9283    3.5312    5.5929
    2.6476    3.5845    5.1469
    1.3994    3.7975    3.9002
    0.7666   -0.3916    5.4468
   -1.3214   -1.5421    4.7887
   -2.8250   -0.4956    3.1009
   -0.1835    2.8281    2.7452
   -3.5563    1.5045    0.2051
   -3.5491    0.1674    1.3757
   -1.2491    1.9368   -0.8535
    0.6015   -0.3007   -0.8255
    0.5944    1.0364   -1.9961
   -1.2562   -0.0521   -3.2283
   -1.2491   -1.3893   -2.0578
    2.1820   -1.4847   -2.1993
    1.0504   -2.8317   -1.9486
    1.4336   -3.6972   -4.1727
    3.0664   -3.2870   -3.6291
    2.8896   -1.0875   -4.8164
    2.3815   -2.3168   -6.0007
@<BUDE>CONF  8
   -5.4128    0.1743   -0.3153
   -5.3732    1.5985   -0.1933
   -4.1463    2.2028   -0.1144
   -4.0065    3.2622    0.7900
   -2.7919    3.9354    0.9469
   -1.6863    3.5515    0.1787
   -1.8174    2.5056   -0.7425
   -3.0341    1.8264   -0.8768
   -0.7478    2.1447   -1.5188
   -0.5206    0.7505   -1.7412
   -0.2775    0.0638   -0.4185
   -1.1167   -0.7119    0.0360
    0.8449    0.2982    0.2556
    1.0815   -0.3703    1.5433
    1.3243   -1.8600    1.3057
    2.5971   -2.0406    0.5928
    3.8580   -2.3571    1.2789
    4.9184   -2.1300    0.1855
    4.3119   -2.6471   -1.1322
    2.6585   -1.9108   -1.1257
    1.7126   -2.8034   -1.7203
    2.7240   -0.5275   -1.4825
   -4.9417   -0.2769    0.5554
   -6.4477   -0.1549   -0.3800
   -4.8789   -0.1270   -1.2142
   -4.8609    3.5640    1.3776
   -2.7069    4.7474    1.6539
   -0.7383    4.0559    0.2936
   -3.0534    1.0157   -1.5900
    0.3497    0.6217   -2.3812
   -1.3930    0.3124   -2.2216
    1.5347    0.9350   -0.1167
    0.2114   -0.2430    2.1840
    1.9541    0.0665    2.0244
    0.5129   -2.2694    0.7073
    1.3681   -2.3780    2.2614
    3.9821   -1.6539    2.0998
    3.8892   -3.3742    1.6641
    5.8007   -2.7232    0.4165
    5.2083   -1.0837    0.1151
    4.8602   -2.2574   -1.9873
    4.2507   -3.7315   -1.1955
@<BUDE>CONF  9
    0.5727   -1.9409   -4.5840
    0.4128   -3.2432   -4.0156
   -0.2721   -3.3489   -2.8338
   -1.1521   -4.4284   -2.6931
   -1.8887   -4.6246   -1.5217
   -1.7540   -3.7192   -0.4624
   -0.8910   -2.6252   -0.5970
   -0.1442   -2.4501   -1.7681
   -0.7771   -1.7188    0.4240
   -1.9682   -1.3346    1.1158
   -1.6227   -0.3362    2.1947
   -1.7016   -0.6575    3.3792
   -1.2329    0.8916    1.8637
   -0.8965    1.8636    2.9140
   -0.4828    3.1858    2.2695
    0.7900    3.0052    1.5566
    2.0509    2.6887    2.2427
    3.1113    2.9158    1.1493
    2.5048    2.3987   -0.1684
    0.8514    3.1350   -0.1619
   -0.0945    2.2424   -0.7565
    0.9169    4.5183   -0.5187
    1.1245   -1.3089   -3.8913
    1.1215   -2.0194   -5.5201
   -0.4063   -1.5053   -4.7722
   -1.2624   -5.1232   -3.5126
   -2.5588   -5.4671   -1.4346
   -2.3098   -3.8608    0.4527
    0.5176   -1.5970   -1.7905
   -2.4250   -2.2125    1.5679
   -2.6660   -0.8824    0.4141
   -1.1677    1.1566    0.8913
   -0.0738    1.4802    3.5138
   -1.7644    2.0266    3.5495
   -0.3614    3.9436    3.0408
   -1.2499    3.5029    1.5661
    2.1750    3.3919    3.0636
    2.0821    1.6716    2.6279
    3.9936    2.3226    1.3803
    3.4012    3.9621    1.0789
    3.0531    2.7884   -1.0235
    2.4436    1.3143   -0.2317
@<BUDE>CONF  10
   -4.2785    2.7064    0.2853
   -3.7033    3.6776    1.1631
   -2.3911    3.5203    1.5241
   -1.5964    4.6713    1.5830
   -0.2488    4.6126    1.9488
    0.3288    3.3752    2.2574
   -0.4501    2.2143    2.1847
   -1.8038    2.2884    1.8357
    0.1165    0.9968    2.4563
    1.4355    0.7461    1.9643
    1.4351    0.8360    0.4569
    2.0023    1.7719   -0.1043
    0.8207   -0.0975   -0.2643
    0.1426   -1.2160    0.4065
   -0.4768   -2.1379   -0.6428
    0.5921   -2.7994   -1.4049
    1.6193   -3.6401   -0.7734
    2.2483   -4.3813   -1.9678
    2.3236   -3.3688   -3.1258
    0.6702   -2.6325   -3.1193
   -0.2757   -3.5251   -3.7139
    0.7357   -1.2492   -3.4761
   -4.2403    1.7259    0.7554
   -5.3137    2.9712    0.0809
   -3.7183    2.6843   -0.6471
   -2.0392    5.6254    1.3378
    0.3436    5.5146    1.9910
    1.3666    3.3133    2.5498
   -2.3466    1.3548    1.8234
    1.7534   -0.2492    2.2675
    2.1216    1.4862    2.3709
    0.8197   -0.0383   -1.2725
   -0.6399   -0.8295    1.0561
    0.8637   -1.7751    0.9992
   -1.0958   -1.5531   -1.3201
   -1.0887   -2.8903   -0.1496
    2.3424   -2.9857   -0.2911
    1.2108   -4.3327   -0.0404
    1.5940   -5.1982   -2.2645
    3.2268   -4.7880   -1.7209
    3.0500   -2.5885   -2.9082
    2.5419   -3.8178   -4.0925
@<BUDE>CONF  11
   -3.4334    3.7250    0.6916
   -4.5004    2.7983    0.9103
   -4.2210    1.4611    0.8081
   -5.1703    0.6510    0.1736
   -4.9711   -0.7232    0.0146
   -3.7998   -1.3117    0.5062
   -2.8507   -0.5160    1.1588
   -3.0529    0.8625    1.2949
   -1.7162   -1.0905    1.6687
   -1.0714   -2.1046    0.8937
   -0.6395   -1.5252   -0.4322
   -1.2041   -1.8712   -1.4685
    0.3522   -0.6401   -0.4793
    1.0271   -0.2266    0.7595
    2.1192    0.7895    0.4286
    3.1881    0.1280   -0.3335
    4.2153   -0.7127    0.2980
    4.8443   -1.4539   -0.8964
    4.9196   -0.4414   -2.0544
    3.2662    0.2949   -2.0479
    2.3203   -0.5977   -2.6425
    3.3317    1.6782   -2.4047
   -3.0493    3.6029   -0.3189
   -3.8036    4.7400    0.8193
   -2.6371    3.5359    1.4084
   -6.0776    1.1028   -0.1992
   -5.7160   -1.3274   -0.4818
   -3.6266   -2.3707    0.3844
   -2.2671    1.4150    1.7885
   -1.7639   -2.9258    0.7216
   -0.1986   -2.4716    1.4299
    0.6419   -0.2520   -1.3655
    1.4741   -1.0959    1.2372
    0.3033    0.2265    1.4337
    2.5298    1.1947    1.3511
    1.6965    1.5964   -0.1663
    4.9384   -0.0583    0.7803
    3.8068   -1.4053    1.0310
    4.1900   -2.2708   -1.1931
    5.8228   -1.8606   -0.6495
    5.6460    0.3389   -1.8368
    5.1379   -0.8904   -3.0211
@<BUDE>CONF  12
   -1.0312    4.0764   -0.0046
   -1.1881    4.0264    1.4159
   -1.4663    2.8138    1.9894
   -0.8235    2.5083    3.1949
   -1.0491    1.2995    3.8590
   -1.9321    0.3637    3.3072
   -2.5675    0.6490    2.0929
   -2.3480    1.8714    1.4469
   -3.4096   -0.2749    1.5322
   -3.0258   -1.6514    1.5849
   -1.7183   -1.8368    0.8525
   -0.6936   -2.1008    1.4792
   -1.6749   -1.7144   -0.4711
   -0.4021   -1.8950   -1.1841
    0.5288   -0.7256   -0.8666
    1.8016   -0.9062   -1.5795
    3.0625   -1.2227   -0.8934
    4.1229   -0.9956   -1.9868
    3.5164   -1.5127   -3.3045
    1.8630   -0.7764   -3.2980
    0.9171   -1.6690   -3.8926
    1.9285    0.6069   -3.6548
   -1.9539    3.7537   -0.4823
   -0.8023    5.0958   -0.3079
   -0.2183    3.4175   -0.3024
   -0.1364    3.2264    3.6175
   -0.5446    1.0875    4.7901
   -2.1238   -0.5717    3.8117
   -2.8906    2.0306    0.5268
   -3.7941   -2.2611    1.1141
   -2.9058   -1.9555    2.6226
   -2.5158   -1.4977   -0.9868
   -0.5876   -1.9294   -2.2556
    0.0638   -2.8253   -0.8658
    0.7157   -0.6906    0.2047
    0.0644    0.2053   -1.1850
    3.1866   -0.5195   -0.0725
    3.0937   -2.2398   -0.5082
    5.0052   -1.5888   -1.7558
    4.4128    0.0507   -2.0572
    4.0647   -1.1230   -4.1596
    3.4552   -2.5971   -3.3678
@<BUDE>CONF  13
    0.2337    1.2269    4.8564
   -0.3004   -0.0392    5.2521
   -0.9716   -0.7756    4.3120
   -0.7509   -2.1579    4.2980
   -1.3959   -2.9931    3.3816
   -2.2795   -2.4396    2.4473
   -2.4952   -1.0565    2.4386
   -1.8578   -0.2328    3.3740
   -3.3354   -0.5048    1.5076
   -2.9482    0.7326    0.9044
   -1.6408    0.5472    0.1721
   -0.6151    1.0734    0.6004
   -1.5984   -0.1858   -0.9370
   -0.3256   -0.3663   -1.6499
    0.0881    0.9559   -2.2944
    1.3609    0.7753   -3.0073
    2.6218    0.4588   -2.3212
    3.6822    0.6859   -3.4146
    3.0757    0.1688   -4.7323
    1.4223    0.9051   -4.7258
    0.4764    0.0125   -5.3204
    1.4878    2.2884   -5.0826
   -0.5765    1.8753    4.5292
    0.7460    1.6835    5.7006
    0.9370    1.0836    4.0389
   -0.0638   -2.5848    5.0135
   -1.2128   -4.0574    3.3924
   -2.7922   -3.0719    1.7376
   -2.0910    0.8204    3.3216
   -2.8269    1.4905    1.6755
   -3.7154    1.0495    0.2010
   -2.4402   -0.6184   -1.2896
   -0.4459   -1.1234   -2.4220
    0.4426   -0.6826   -0.9473
    0.2095    1.7137   -1.5231
   -0.6790    1.2730   -2.9978
    2.7459    1.1620   -1.5003
    2.6530   -0.5583   -1.9360
    4.5645    0.0927   -3.1836
    3.9721    1.7322   -3.4850
    3.6240    0.5585   -5.5874
    3.0145   -0.9156   -4.7956
@<BUDE>CONF  14
    3.7741   -1.3181    0.0583
    2.8361   -1.3083    1.1375
    2.1934   -0.1318    1.4196
    2.0167    0.1988    2.7684
    1.3800    1.3814    3.1550
    0.8980    2.2573    2.1750
    1.0520    1.9300    0.8227
    1.7085    0.7517    0.4479
    0.5560    2.7680   -0.1410
   -0.7213    3.3696    0.0860
   -1.7678    2.2899    0.2241
   -2.2924    2.0769    1.3159
   -2.1224    1.5686   -0.8356
   -3.1412    0.5174   -0.7011
   -2.5728   -0.6394    0.1194
   -1.5039   -1.3009   -0.6427
   -0.4767   -2.1416   -0.0112
    0.1523   -2.8828   -1.2056
    0.2276   -1.8703   -2.3636
   -1.4258   -1.1340   -2.3571
   -2.3717   -2.0266   -2.9517
   -1.3603    0.2493   -2.7139
    4.5755   -0.6129    0.2687
    4.1893   -2.3177   -0.0514
    3.2700   -1.0310   -0.8621
    2.3815   -0.4799    3.5251
    1.2586    1.6171    4.2019
    0.4109    3.1792    2.4567
    1.8105    0.5775   -0.6130
   -0.9741    4.0135   -0.7538
   -0.6875    3.9601    0.9993
   -1.6922    1.7427   -1.7327
   -3.4235    0.1568   -1.6880
   -4.0167    0.9224   -0.1979
   -3.3630   -1.3566    0.3320
   -2.1678   -0.2574    1.0542
    0.2464   -1.4872    0.4711
   -0.8852   -2.8342    0.7218
   -0.5020   -3.6997   -1.5023
    1.1308   -3.2895   -0.9587
    0.9540   -1.0900   -2.1460
    0.4459   -2.3193   -3.3303
@<BUDE>CONF  15
   -4.4735   -0.3898    2.4658
   -5.1723    0.3672    1.4742
   -4.4586    0.8376    0.4036
   -4.7458    2.1327   -0.0436
   -4.0651    2.7021   -1.1233
   -3.0765    1.9623   -1.7830
   -2.7922    0.6594   -1.3574
   -3.4675    0.1071   -0.2625
   -1.8470   -0.0810   -2.0174
   -0.6510    0.5801   -2.4385
    0.0719    1.1280   -1.2313
    0.1268    2.3424   -1.0450
    0.6499    0.2966   -0.3689
    1.3537    0.8299    0.8064
    1.9221   -0.3269    1.6269
    2.9910   -0.9884    0.8648
    4.0182   -1.8291    1.4963
    4.6472   -2.5703    0.3019
    4.7225   -1.5578   -0.8561
    3.0691   -0.8215   -0.8496
    2.1232   -1.7141   -1.4442
    3.1346    0.5618   -1.2064
   -3.6927    0.2257    2.9075
   -5.1707   -0.7032    3.2400
   -4.0263   -1.2670    2.0030
   -5.5136    2.7014    0.4599
   -4.3013    3.7047   -1.4481
   -2.5354    2.3905   -2.6138
   -3.1784   -0.8937    0.0227
   -0.9049    1.3975   -3.1102
   -0.0071   -0.1283   -2.9554
    0.6055   -0.7009   -0.5208
    0.6583    1.4005    1.4184
    2.1662    1.4764    0.4809
    1.1319   -1.0441    1.8395
    2.3271    0.0551    2.5617
    4.7413   -1.1747    1.9786
    3.6097   -2.5217    2.2293
    3.9929   -3.3872    0.0052
    5.6257   -2.9770    0.5488
    5.4489   -0.7775   -0.6385
    4.9408   -2.0068   -1.8228
@<BUDE>CONF  16
   -4.9766   -0.8033    0.5529
   -5.2755    0.5922    0.6430
   -4.2362    1.4795    0.5463
   -4.4523    2.6468   -0.1955
   -3.4551    3.6148   -0.3444
   -2.2052    3.4149    0.2537
   -1.9700    2.2434    0.9830
   -2.9831    1.2902    1.1410
   -0.7396    2.0277    1.5456
    0.4176    2.3844    0.7850
    0.4419    1.5866   -0.4968
    0.2438    2.1458   -1.5741
    0.6776    0.2781   -0.4607
    0.9142   -0.3904    0.8270
    1.1570   -1.8801    0.5894
    2.4298   -2.0607   -0.1235
    3.6907   -2.3772    0.5626
    4.7511   -2.1501   -0.5308
    4.1446   -2.6672   -1.8485
    2.4912   -1.9309   -1.8420
    1.5453   -2.8235   -2.4366
    2.5567   -0.5476   -2.1988
   -4.3034   -1.0822    1.3609
   -5.8976   -1.3767    0.6331
   -4.5015   -1.0107   -0.4036
   -5.4137    2.7983   -0.6635
   -3.6462    4.5094   -0.9183
   -1.4265    4.1567    0.1552
   -2.7360    0.4235    1.7361
    1.3134    2.1680    1.3632
    0.3845    3.4462    0.5499
    0.6940   -0.2566   -1.3174
    0.0441   -0.2631    1.4677
    1.7868    0.0464    1.3081
    0.3456   -2.2895   -0.0090
    1.2008   -2.3981    1.5451
    3.8148   -1.6740    1.3835
    3.7219   -3.3943    0.9478
    5.6334   -2.7433   -0.2998
    5.0410   -1.1038   -0.6012
    4.6929   -2.2775   -2.7036
    4.0834   -3.7516   -1.9118
@<BUDE>CONF  17
   -2.2996   -1.4994    5.2919
   -0.9377   -1.2280    4.9508
   -0.6550   -0.0393    4.3314
    0.5049    0.6355    4.7303
    0.8808    1.8506    4.1511
    0.0785    2.4162    3.1529
   -1.0936    1.7609    2.7576
   -1.4494    0.5347    3.3318
   -1.8988    2.3237    1.8027
   -2.4786    1.4610    0.8207
   -1.3806    0.7815    0.0378
   -1.1817   -0.4243    0.1756
   -0.6280    1.4876   -0.8012
    0.4409    0.8261   -1.5634
   -0.1785   -0.0958   -2.6127
    0.8904   -0.7573   -3.3748
    1.9176   -1.5980   -2.7433
    2.5466   -2.3392   -3.9377
    2.6219   -1.3267   -5.0957
    0.9685   -0.5904   -5.0892
    0.0226   -1.4830   -5.6838
    1.0340    0.7929   -5.4460
   -2.9037   -1.5126    4.3871
   -2.3634   -2.4668    5.7855
   -2.6662   -0.7248    5.9622
    1.1204    0.2037    5.5055
    1.7823    2.3511    4.4724
    0.3589    3.3505    2.6893
   -2.3542    0.0769    2.9601
   -3.0976    2.0456    0.1434
   -3.0904    0.7085    1.3140
   -0.7904    2.4779   -0.9152
    1.0602    0.2404   -0.8872
    1.0531    1.5775   -2.0578
   -0.7975    0.4890   -3.2900
   -0.7904   -0.8482   -2.1195
    2.6407   -0.9436   -2.2610
    1.5091   -2.2906   -2.0103
    1.8923   -3.1561   -4.2344
    3.5251   -2.7459   -3.6908
    3.3483   -0.5464   -4.8781
    2.8402   -1.7757   -6.0624
@<BUDE>CONF  18
    3.9105   -3.3501    0.1879
    2.9564   -4.1872    0.8466
    1.9284   -3.5827    1.5207
    1.5572   -4.1294    2.7548
    0.5256   -3.5777    3.5195
   -0.1627   -2.4559    3.0421
    0.1864   -1.9103    1.8010
    1.2343   -2.4604    1.0533
   -0.5029   -0.8310    1.3142
   -1.9217   -0.8061    1.4907
   -2.4810    0.4597    0.8865
   -2.9318    1.3426    1.6144
   -2.4863    0.6199   -0.4339
   -3.0308    1.8522   -1.0221
   -2.0999    3.0216   -0.7046
   -0.8271    2.8410   -1.4175
    0.4338    2.5245   -0.7314
    1.4942    2.7516   -1.8248
    0.8877    2.2345   -3.1425
   -0.7657    2.9708   -3.1360
   -1.7116    2.0782   -3.7306
   -0.7002    4.3541   -3.4928
    4.4016   -2.7142    0.9215
    4.6527   -3.9699   -0.3105
    3.4017   -2.7304   -0.5474
    2.0825   -4.9993    3.1204
    0.2594   -4.0145    4.4706
   -0.9569   -2.0124    3.6242
    1.4619   -1.9721    0.1173
   -2.1564   -0.8347    2.5526
   -2.3643   -1.6690    0.9974
   -2.1163   -0.1044   -1.0326
   -4.0157    2.0498   -0.6043
   -3.1104    1.7355   -2.1009
   -1.9130    3.0566    0.3667
   -2.5643    3.9525   -1.0230
    0.5579    3.2277    0.0895
    0.4650    1.5074   -0.3462
    2.3765    2.1584   -1.5938
    1.7841    3.7979   -1.8952
    1.4360    2.6242   -3.9976
    0.8265    1.1501   -3.2058
@<BUDE>CONF  19
   -4.6772   -1.6012   -0.7304
   -5.0515   -0.3727   -1.3593
   -4.2637    0.7267   -1.1415
   -4.0154    1.5680   -2.2325
   -3.2303    2.7174   -2.1069
   -2.6692    3.0370   -0.8647
   -2.8947    2.1944    0.2302
   -3.6987    1.0562    0.0962
   -2.3240    2.4851    1.4413
   -1.7921    1.4024    2.2093
   -0.6941    0.7230    1.4264
   -0.8672   -0.4093    0.9787
    0.4610    1.3494    1.2210
    1.5299    0.6879    0.4589
    2.0983   -0.4689    1.2794
    3.1672   -1.1304    0.5173
    4.1944   -1.9711    1.1488
    4.8234   -2.7123   -0.0456
    4.8987   -1.6998   -1.2036
    3.2453   -0.9635   -1.1971
    2.2994   -1.8561   -1.7917
    3.3108    0.4198   -1.5539
   -4.6826   -1.4712    0.3498
   -5.3856   -2.3795   -1.0061
   -3.6793   -1.8858   -1.0571
   -4.4416    1.3182   -3.1929
   -3.0556    3.3536   -2.9620
   -2.0668    3.9259   -0.7486
   -3.8469    0.4673    0.9893
   -2.5821    0.6853    2.4220
   -1.3870    1.7847    3.1440
    0.6043    2.2793    1.5882
    2.3211    1.4039    0.2463
    1.1259    0.3046   -0.4758
    1.3081   -1.1861    1.4920
    2.5033   -0.0869    2.2142
    4.9175   -1.3167    1.6311
    3.7859   -2.6637    1.8818
    4.1691   -3.5292   -0.3423
    5.8019   -3.1190    0.2013
    5.6251   -0.9195   -0.9860
    5.1170   -2.1488   -2.1703
@<BUDE>CONF  20
    3.1839    4.2319    1.2880
    3.7855    3.0068    1.7144
    3.0214    1.8702    1.6818
    3.6372    0.6920    1.2430
    2.9418   -0.5188    1.1825
    1.5946   -0.5600    1.5609
    0.9618    0.6147    1.9843
    1.6743    1.8175    2.0588
   -0.3643    0.5875    2.3274
   -1.1861    1.6832    1.9164
   -1.1865    1.7731    0.4090
   -0.6193    2.7090   -0.1522
   -1.8009    0.8396   -0.3122
   -2.4790   -0.2789    0.3586
   -3.0984   -1.2008   -0.6907
   -2.0295   -1.8623   -1.4528
   -1.0023   -2.7030   -0.8213
   -0.3733   -3.4442   -2.0157
   -0.2980   -2.4317   -3.1737
   -1.9514   -1.6954   -3.1672
   -2.8973   -2.5880   -3.7618
   -1.8859   -0.3121   -3.5240
    2.3314    4.4577    1.9252
    3.9127    5.0366    1.3576
    2.8505    4.1319    0.2572
    4.6744    0.7244    0.9437
    3.4390   -1.4159    0.8442
    1.0450   -1.4892    1.5279
    1.1265    2.6767    2.4165
   -0.7940    2.6082    2.3341
   -2.2031    1.5272    2.2700
   -1.8019    0.8988   -1.3204
   -3.2615    0.1076    1.0082
   -1.7579   -0.8380    0.9513
   -3.7174   -0.6160   -1.3680
   -3.7103   -1.9532   -0.1975
   -0.2792   -2.0486   -0.3390
   -1.4108   -3.3956   -0.0883
   -1.0276   -4.2611   -2.3124
    0.6052   -3.8509   -1.7688
    0.4284   -1.6514   -2.9561
   -0.0797   -2.8807   -4.1404
@<BUDE>CONF  21
   -5.0085    2.2391   -0.1093
   -5.6174    0.9616    0.0957
   -4.8200   -0.1499    0.0196
   -5.3437   -1.2758   -0.6268
   -4.6032   -2.4534   -0.7611
   -3.3087   -2.5182   -0.2320
   -2.7798   -1.4055    0.4328
   -3.5243   -0.2252    0.5441
   -1.5252   -1.4723    0.9792
   -0.5045   -2.1426    0.2352
    0.7908   -2.1022    1.0102
    1.2463   -3.1331    1.5024
    1.4395   -0.9509    1.1608
    0.8950    0.2814    0.5726
    1.8259    1.4508    0.8901
    3.0987    1.2702    0.1772
    4.3596    0.9537    0.8633
    5.4200    1.1808   -0.2301
    4.8135    0.6637   -1.5478
    3.1601    1.4000   -1.5413
    2.2142    0.5074   -2.1359
    3.2256    2.7833   -1.8981
   -4.5788    2.2792   -1.1081
   -5.7598    3.0190   -0.0054
   -4.2244    2.3892    0.6298
   -6.3451   -1.2292   -1.0287
   -5.0268   -3.3081   -1.2674
   -2.7200   -3.4179   -0.3343
   -3.0422    0.5987    1.0493
   -0.3683   -1.6464   -0.7234
   -0.7956   -3.1779    0.0703
    2.3059   -0.9226    1.6791
   -0.0899    0.4790    0.9904
    0.8154    0.1647   -0.5062
    2.0128    1.4858    1.9614
    1.3615    2.3817    0.5717
    4.4837    1.6569    1.6842
    4.3908   -0.0634    1.2485
    6.3023    0.5876    0.0009
    5.7099    2.2271   -0.3005
    5.3618    1.0534   -2.4029
    4.7523   -0.4207   -1.6111
@<BUDE>CONF  22
   -3.7292   -3.6604   -1.5945
   -2.6504   -4.3131   -0.9198
   -1.7323   -3.5313   -0.2698
   -0.3854   -3.8993   -0.3712
    0.6244   -3.1596    0.2504
    0.2874   -2.0267    1.0006
   -1.0574   -1.6581    1.1251
   -2.0581   -2.3961    0.4819
   -1.3967   -0.5680    1.8824
   -2.4190    0.3007    1.3872
   -1.9871    0.8801    0.0613
   -2.5517    0.5341   -0.9750
   -0.9954    1.7652    0.0142
   -0.3205    2.1787    1.2530
    0.7716    3.1948    0.9221
    1.8405    2.5333    0.1600
    2.8677    1.6926    0.7915
    3.4967    0.9514   -0.4029
    3.5720    1.9639   -1.5609
    1.9186    2.7002   -1.5544
    0.9727    1.8076   -2.1490
    1.9841    4.0835   -1.9112
   -3.3303   -3.0075   -2.3680
   -4.3771   -4.4074   -2.0482
   -4.2994   -3.0708   -0.8798
   -0.1251   -4.7775   -0.9434
    1.6572   -3.4607    0.1549
    1.0562   -1.4394    1.4805
   -3.0698   -2.0383    0.6040
   -2.5858    1.1076    2.0977
   -3.3405   -0.2620    1.2535
   -0.7057    2.1533   -0.8720
    0.1265    1.3094    1.7307
   -1.0443    2.6318    1.9272
    1.1822    3.6000    1.8446
    0.3489    4.0017    0.3272
    3.5908    2.3470    1.2738
    2.4592    1.0000    1.5245
    2.8424    0.1345   -0.6996
    4.4752    0.5447   -0.1560
    4.2984    2.7442   -1.3433
    3.7903    1.5149   -2.5276
@<BUDE>CONF  23
   -5.6167    3.3167    0.2894
   -4.2495    2.9029    0.2241
   -3.9889    1.5647    0.0897
   -4.7798    0.6767    0.8282
   -4.5946   -0.7065    0.7511
   -3.5907   -1.2228   -0.0768
   -2.7807   -0.3449   -0.8068
   -2.9886    1.0377   -0.7358
   -1.7769   -0.8420   -1.5957
   -1.0031   -1.9324   -1.0887
   -0.3098   -1.5077    0.1837
   -0.6616   -1.9795    1.2637
    0.6819   -0.6226    0.1366
    1.3568   -0.2091    1.3754
    2.4489    0.8070    1.0445
    3.5178    0.1455    0.2824
    4.5450   -0.6952    0.9139
    5.1740   -1.4364   -0.2805
    5.2493   -0.4239   -1.4385
    3.5959    0.3124   -1.4320
    2.6500   -0.5802   -2.0266
    3.6614    1.6957   -1.7888
   -6.0930    2.8578    1.1533
   -5.6631    4.3998    0.3817
   -6.1324    3.0069   -0.6170
   -5.5496    1.0744    1.4729
   -5.2198   -1.3724    1.3274
   -3.4398   -2.2894   -0.1541
   -2.3407    1.6508   -1.3447
   -0.2586   -2.2237   -1.8267
   -1.6575   -2.7762   -0.8801
    0.9716   -0.2345   -0.7496
    1.8038   -1.0784    1.8531
    0.6330    0.2440    2.0496
    2.8595    1.2122    1.9670
    2.0262    1.6139    0.4496
    5.2681   -0.0408    1.3962
    4.1365   -1.3878    1.6469
    4.5197   -2.2533   -0.5772
    6.1525   -1.8431   -0.0336
    5.9757    0.3564   -1.2209
    5.4676   -0.8729   -2.4052
@<BUDE>CONF  24
   -0.2824    5.5611    3.2873
   -0.4878    4.6402    2.2128
   -0.9209    3.3779    2.5223
   -0.3648    2.7644    3.6511
   -0.7489    1.4815    4.0510
   -1.7067    0.7844    3.3051
   -2.2574    1.3791    2.1637
   -1.8786    2.6723    1.7842
   -3.1730    0.6907    1.4122
   -2.9457   -0.7035    1.1899
   -1.6383   -0.8889    0.4575
   -0.6750   -1.3904    1.0347
   -1.5284   -0.5096   -0.8125
   -0.2555   -0.6901   -1.5254
   -0.0127   -2.1798   -1.7630
    1.2601   -2.3604   -2.4759
    2.5210   -2.6769   -1.7898
    3.5814   -2.4498   -2.8832
    2.9749   -2.9669   -4.2009
    1.3215   -2.2306   -4.1944
    0.3756   -3.1232   -4.7890
    1.3870   -0.8473   -4.5512
    0.4777    5.1690    3.9598
    0.0458    6.5178    2.8864
   -1.2145    5.6959    3.8318
    0.3797    3.2984    4.2229
   -0.3087    1.0300    4.9278
   -2.0206   -0.2045    3.6051
   -2.3629    3.0747    0.9068
   -3.7570   -1.1130    0.5917
   -2.9019   -1.2214    2.1458
   -2.3188   -0.0976   -1.2875
    0.5567   -0.2817   -0.9278
   -0.2984   -0.1732   -2.4819
   -0.8241   -2.5892   -2.3614
    0.0311   -2.6978   -0.8073
    2.6451   -1.9737   -0.9689
    2.5522   -3.6940   -1.4046
    4.4637   -3.0430   -2.6522
    3.8713   -1.4035   -2.9536
    3.5232   -2.5772   -5.0560
    2.9137   -4.0513   -4.2642
@<BUDE>CONF  25
   -0.6655    5.0492   -1.9336
    0.5868    4.9371   -1.2524
    0.8137    3.8109   -0.5061
    2.0935    3.2466   -0.5636
    2.4227    2.1024    0.1684
    1.4518    1.4964    0.9746
    0.1628    2.0400    1.0270
   -0.1492    3.1975    0.3041
   -0.8004    1.4347    1.7905
   -2.1244    1.3508    1.2571
   -2.1001    0.5530   -0.0247
   -2.2982    1.1122   -1.1020
   -1.8644   -0.7555    0.0114
   -1.6278   -1.4240    1.2991
   -1.3850   -2.9137    1.0615
   -0.1122   -3.0943    0.3486
    1.1487   -3.4108    1.0347
    2.2091   -3.1837   -0.0587
    1.6026   -3.7008   -1.3764
   -0.0508   -2.9645   -1.3699
   -0.9967   -3.8571   -1.9645
    0.0147   -1.5812   -1.7267
   -1.4753    5.0354   -1.2072
   -0.6925    5.9837   -2.4901
   -0.7798    4.2137   -2.6209
    2.8410    3.7090   -1.1912
    3.4180    1.6871    0.1111
    1.6921    0.6165    1.5530
   -1.1564    3.5721    0.4121
   -2.4982    2.3520    1.0532
   -2.7756    0.8595    1.9770
   -1.8480   -1.2902   -0.8453
   -2.4979   -1.2967    1.9398
   -0.7552   -0.9872    1.7802
   -2.1964   -3.3231    0.4631
   -1.3412   -3.4317    2.0172
    1.2728   -2.7076    1.8556
    1.1799   -4.4279    1.4199
    3.0914   -3.7769    0.1723
    2.4990   -2.1374   -0.1291
    2.1509   -3.3111   -2.2315
    1.5414   -4.7852   -1.4397
@<BUDE>CONF  26
    0.5190    2.5576   -3.8460
    1.0774    3.2818   -2.7467
    0.3373    3.3773   -1.5978
    0.3379    4.6082   -0.9311
   -0.3928    4.8048    0.2440
   -1.1393    3.7472    0.7770
   -1.1339    2.5057    0.1301
   -0.4133    2.3268   -1.0567
   -1.8381    1.4580    0.6626
   -1.8098    1.2832    2.0816
   -2.6435    0.0813    2.4564
   -3.7084    0.2323    3.0530
   -2.2260   -1.1416    2.1413
   -0.9531   -1.3221    1.4284
   -0.7103   -2.8118    1.1908
    0.5625   -2.9924    0.4779
    1.8234   -3.3089    1.1640
    2.8838   -3.0818    0.0706
    2.2773   -3.5989   -1.2471
    0.6239   -2.8626   -1.2406
   -0.3220   -3.7552   -1.8352
    0.6894   -1.4793   -1.5974
   -0.4093    3.0319   -4.1578
    1.2235    2.5580   -4.6750
    0.3185    1.5330   -3.5400
    0.9195    5.4225   -1.3374
   -0.3802    5.7647    0.7387
   -1.7160    3.8847    1.6797
   -0.4753    1.3491   -1.5113
   -2.2148    2.1697    2.5651
   -0.7836    1.1280    2.4081
   -2.7827   -1.9462    2.3916
   -0.1409   -0.9137    2.0260
   -0.9960   -0.8052    0.4719
   -1.5217   -3.2212    0.5924
   -0.6665   -3.3298    2.1465
    1.9475   -2.6057    1.9849
    1.8546   -4.3260    1.5492
    3.7661   -3.6750    0.3016
    3.1737   -2.0355    0.0002
    2.8256   -3.2092   -2.1022
    2.2161   -4.6833   -1.3104
@<BUDE>CONF  27
   -2.3921   -4.3389    2.8112
   -3.2931   -3.2414    2.6426
   -2.8175   -1.9780    2.8755
   -1.9630   -1.8026    3.9704
   -1.4212   -0.5529    4.2836
   -1.7427    0.5561    3.4920
   -2.6105    0.3981    2.4049
   -3.1316   -0.8625    2.0901
   -2.9531    1.4849    1.6443
   -1.9310    2.4358    1.3346
   -0.8331    1.7563    0.5518
    0.2679    1.5720    1.0681
   -1.0566    1.3570   -0.6971
    0.0123    0.6956   -1.4592
    1.1044    1.7117   -1.7901
    2.1733    1.0502   -2.5522
    3.2005    0.2095   -1.9207
    3.8295   -0.5317   -3.1151
    3.9048    0.4808   -4.2731
    2.2514    1.2171   -4.2666
    1.3055    0.3245   -4.8612
    2.3169    2.6004   -4.6234
   -2.0417   -4.3647    3.8409
   -2.9069   -5.2688    2.5792
   -1.5434   -4.2167    2.1416
   -1.7204   -2.6561    4.5861
   -0.7611   -0.4427    5.1311
   -1.3262    1.5272    3.7153
   -3.7749   -0.9116    1.2240
   -1.5204    2.8412    2.2570
   -2.3538    3.2427    0.7396
   -1.9603    1.5079   -1.1221
   -0.3970    0.2905   -2.3823
    0.4364   -0.1111   -0.8649
    1.5150    2.1169   -0.8676
    0.6817    2.5186   -2.3850
    3.9236    0.8639   -1.4384
    2.7920   -0.4831   -1.1877
    3.1752   -1.3486   -3.4118
    4.8080   -0.9384   -2.8682
    4.6312    1.2611   -4.0555
    4.1231    0.0318   -5.2398
@<BUDE>CONF  28
    1.9191    1.9534    5.8569
    1.6060    2.0380    4.4642
    0.4370    1.4687    4.0326
    0.0794    0.2332    4.5851
   -1.0981   -0.4216    4.2137
   -1.9411    0.1628    3.2609
   -1.5861    1.3894    2.6871
   -0.4136    2.0446    3.0815
   -2.3913    1.9522    1.7322
   -2.9711    1.0895    0.7502
   -1.8731    0.4100   -0.0327
   -1.6742   -0.7958    0.1051
   -1.1205    1.1161   -0.8717
   -0.0516    0.4546   -1.6339
   -0.6710   -0.4673   -2.6832
    0.3979   -1.1288   -3.4453
    1.4251   -1.9695   -2.8138
    2.0541   -2.7107   -4.0082
    2.1294   -1.6982   -5.1662
    0.4760   -0.9619   -5.1597
   -0.4699   -1.8545   -5.7543
    0.5415    0.4214   -5.5165
    2.0014    0.9079    6.1465
    2.8637    2.4585    6.0469
    1.1299    2.4294    6.4349
    0.7328   -0.2220    5.3146
   -1.3552   -1.3725    4.6565
   -2.8588   -0.3260    2.9687
   -0.2173    2.9977    2.6130
   -3.5901    1.6741    0.0729
   -3.5829    0.3370    1.2435
   -1.2829    2.1064   -0.9857
    0.5677   -0.1311   -0.9577
    0.5606    1.2060   -2.1283
   -1.2900    0.1175   -3.3605
   -1.2829   -1.2197   -2.1900
    2.1482   -1.3151   -2.3315
    1.0166   -2.6621   -2.0808
    1.3998   -3.5276   -4.3049
    3.0326   -3.1174   -3.7613
    2.8558   -0.9179   -4.9486
    2.3477   -2.1472   -6.1329
@<BUDE>CONF  29
   -6.3245    2.2920    0.2620
   -4.9099    2.2037    0.0723
   -4.3301    0.9638    0.1289
   -4.7921    0.0805    1.1118
   -4.2679   -1.2084    1.2427
   -3.2505   -1.6302    0.3785
   -2.7667   -0.7505   -0.5971
   -3.3132    0.5314   -0.7306
   -1.7506   -1.1463   -1.4264
   -0.7285   -0.1953   -1.7361
   -0.0353    0.2294   -0.4637
   -0.1909    1.3691   -0.0285
    0.7444   -0.6296    0.1869
    1.4193   -0.2161    1.4257
    2.5114    0.8000    1.0948
    3.5803    0.1385    0.3327
    4.6075   -0.7022    0.9642
    5.2365   -1.4434   -0.2302
    5.3118   -0.4309   -1.3882
    3.6584    0.3054   -1.3817
    2.7125   -0.5872   -1.9763
    3.7239    1.6887   -1.7385
   -6.5814    1.9154    1.2499
   -6.6371    3.3305    0.1765
   -6.8292    1.6970   -0.4962
   -5.5717    0.4076    1.7839
   -4.6430   -1.8737    2.0063
   -2.8401   -2.6258    0.4609
   -2.9060    1.1453   -1.5203
   -1.1744    0.6749   -2.2132
   -0.0036   -0.6476   -2.4097
    0.8729   -1.5659   -0.1695
    1.8663   -1.0854    1.9034
    0.6955    0.2370    2.0999
    2.9220    1.2052    2.0173
    2.0887    1.6069    0.4999
    5.3306   -0.0478    1.4465
    4.1990   -1.3948    1.6972
    4.5822   -2.2603   -0.5269
    6.2150   -1.8501    0.0167
    6.0382    0.3494   -1.1706
    5.5301   -0.8799   -2.3549
@<BUDE>CONF  30
   -4.8159   -3.9996    1.7744
   -4.0696   -3.2406    2.7292
   -2.8202   -2.8076    2.3708
   -1.8116   -2.8770    3.3391
   -0.5042   -2.4661    3.0651
   -0.1904   -1.9648    1.7962
   -1.1938   -1.8730    0.8244
   -2.4953   -2.3056    1.1050
   -0.9005   -1.3554   -0.4097
   -1.8596   -0.4865   -1.0179
   -2.0691    0.7238   -0.1395
   -3.1340    0.8749    0.4569
   -1.1014    1.6271   -0.0108
    0.1714    1.4465   -0.7238
    1.1023    2.6159   -0.4063
    2.3751    2.4353   -1.1192
    3.6360    2.1188   -0.4331
    4.6964    2.3459   -1.5265
    4.0899    1.8288   -2.8442
    2.4365    2.5651   -2.8377
    1.4906    1.6725   -3.4323
    2.5020    3.9484   -3.1945
   -4.2715   -4.9092    1.5298
   -5.7851   -4.2583    2.1955
   -4.9579   -3.4076    0.8727
   -2.0545   -3.2565    4.3206
    0.2583   -2.5326    3.8270
    0.8169   -1.6506    1.5655
   -3.2101   -2.2262    0.2992
   -2.8033   -1.0143   -1.1381
   -1.4948   -0.1679   -1.9922
   -1.2405    2.4370    0.5763
   -0.0141    1.4121   -1.7953
    0.6373    0.5162   -0.4055
    1.2892    2.6509    0.6650
    0.6379    3.5468   -0.7247
    3.7601    2.8220    0.3878
    3.6672    1.1017   -0.0479
    5.5787    1.7527   -1.2955
    4.9863    3.3922   -1.5969
    4.6382    2.2185   -3.6993
    4.0287    0.7444   -2.9075
@<BUDE>CONF  31
   -0.1306   -0.3790    6.3744
   -0.2538    0.1660    5.0581
   -0.9250   -0.5704    4.1180
   -0.7043   -1.9527    4.1040
   -1.3493   -2.7879    3.1876
   -2.2329   -2.2344    2.2533
   -2.4486   -0.8513    2.2446
   -1.8112   -0.0276    3.1800
   -3.2888   -0.2996    1.3136
   -2.9016    0.9378    0.7104
   -1.5942    0.7524   -0.0219
   -0.5685    1.2786    0.4064
   -1.5518    0.0194   -1.1310
   -0.2790   -0.1611   -1.8439
    0.1347    1.1611   -2.4884
    1.4075    0.9805   -3.2013
    2.6684    0.6640   -2.5152
    3.7288    0.8911   -3.6086
    3.1223    0.3740   -4.9263
    1.4689    1.1103   -4.9198
    0.5230    0.2177   -5.5144
    1.5344    2.4936   -5.2766
    0.4121   -1.3208    6.3270
    0.4113    0.3211    7.0068
   -1.1215   -0.5511    6.7892
   -0.0172   -2.3796    4.8195
   -1.1662   -3.8522    3.1984
   -2.7456   -2.8667    1.5436
   -2.0444    1.0256    3.1276
   -2.7803    1.6957    1.4815
   -3.6688    1.2547    0.0070
   -2.3936   -0.4132   -1.4836
   -0.3993   -0.9182   -2.6160
    0.4892   -0.4774   -1.1413
    0.2561    1.9189   -1.7171
   -0.6324    1.4782   -3.1918
    2.7925    1.3672   -1.6943
    2.6996   -0.3531   -2.1300
    4.6111    0.2979   -3.3776
    4.0187    1.9374   -3.6790
    3.6706    0.7637   -5.7814
    3.0611   -0.7104   -4.9896
@<BUDE>CONF  32
    0.8837   -4.1588   -4.6020
    0.3731   -2.9598   -4.0133
   -0.3118   -3.0655   -2.8315
   -1.1918   -4.1450   -2.6908
   -1.9284   -4.3412   -1.5194
   -1.7937   -3.4358   -0.4601
   -0.9307   -2.3418   -0.5947
   -0.1839   -2.1667   -1.7658
   -0.8168   -1.4354    0.4263
   -2.0079   -1.0512    1.1181
   -1.6624   -0.0528    2.1970
   -1.7413   -0.3741    3.3815
   -1.2726    1.1750    1.8660
   -0.9362    2.1470    2.9163
   -0.5225    3.4692    2.2718
    0.7503    3.2886    1.5589
    2.0112    2.9721    2.2450
    3.0716    3.1992    1.1516
    2.4651    2.6821   -0.1661
    0.8117    3.4184   -0.1596
   -0.1342    2.5258   -0.7542
    0.8772    4.8017   -0.5164
    0.0590   -4.8329   -4.8238
    1.4105   -3.9144   -5.5220
    1.5692   -4.6396   -3.9075
   -1.3021   -4.8398   -3.5103
   -2.5985   -5.1837   -1.4323
   -2.3495   -3.5774    0.4550
    0.4779   -1.3136   -1.7882
   -2.4647   -1.9291    1.5702
   -2.7057   -0.5990    0.4164
   -1.2074    1.4400    0.8936
   -0.1135    1.7636    3.5161
   -1.8041    2.3100    3.5518
   -0.4011    4.2270    3.0431
   -1.2896    3.7863    1.5684
    2.1353    3.6753    3.0659
    2.0424    1.9550    2.6302
    3.9539    2.6060    1.3826
    3.3615    4.2455    1.0812
    3.0134    3.0718   -1.0212
    2.4039    1.5977   -0.2294
@<BUDE>CONF  33
    4.0636   -4.4901    1.4438
    2.9368   -4.0415    0.6861
    1.9088   -3.4370    1.3602
    1.5376   -3.9837    2.5943
    0.5060   -3.4320    3.3590
   -0.1823   -2.3102    2.8816
    0.1668   -1.7646    1.6405
    1.2147   -2.3147    0.8928
   -0.5225   -0.6853    1.1537
   -1.9413   -0.6604    1.3302
   -2.5006    0.6054    0.7260
   -2.9514    1.4883    1.4539
   -2.5059    0.7656   -0.5944
   -3.0504    1.9979   -1.1826
   -2.1195    3.1673   -0.8651
   -0.8467    2.9867   -1.5780
    0.4142    2.6702   -0.8919
    1.4746    2.8973   -1.9853
    0.8681    2.3802   -3.3030
   -0.7853    3.1165   -3.2965
   -1.7312    2.2239   -3.8911
   -0.7198    4.4998   -3.6533
    3.7392   -5.2327    2.1698
    4.7971   -4.9333    0.7737
    4.5101   -3.6450    1.9634
    2.0629   -4.8536    2.9599
    0.2398   -3.8688    4.3101
   -0.9765   -1.8667    3.4637
    1.4423   -1.8264   -0.0432
   -2.1760   -0.6890    2.3921
   -2.3839   -1.5233    0.8369
   -2.1359    0.0413   -1.1931
   -4.0353    2.1955   -0.7648
   -3.1300    1.8812   -2.2614
   -1.9326    3.2023    0.2062
   -2.5839    4.0982   -1.1835
    0.5383    3.3734   -0.0710
    0.4454    1.6531   -0.5067
    2.3569    2.3041   -1.7543
    1.7645    3.9436   -2.0557
    1.4164    2.7699   -4.1581
    0.8069    1.2958   -3.3663
@<BUDE>CONF  34
    1.0127    1.6822    5.2633
   -0.3716    1.4076    5.0328
   -0.9462    1.9121    3.8962
   -0.5903    3.2116    3.5162
   -1.1177    3.8090    2.3680
   -2.0304    3.0995    1.5785
   -2.4088    1.8060    1.9572
   -1.8590    1.2113    3.0990
   -3.3245    1.1176    1.2057
   -3.0971   -0.2766    0.9834
   -1.7897   -0.4620    0.2510
   -0.8264   -0.9635    0.8282
   -1.6798   -0.0827   -1.0190
   -0.4069   -0.2632   -1.7319
   -0.1642   -1.7529   -1.9695
    1.1087   -1.9335   -2.6824
    2.3695   -2.2500   -1.9963
    3.4299   -2.0229   -3.0897
    2.8235   -2.5400   -4.4074
    1.1701   -1.8037   -4.4009
    0.2242   -2.6963   -4.9955
    1.2355   -0.4204   -4.7577
    1.1611    2.7575    5.3366
    1.3263    1.2081    6.1909
    1.6020    1.2895    4.4373
    0.1081    3.7625    4.1287
   -0.8250    4.8115    2.0927
   -2.4410    3.5435    0.6838
   -2.1803    0.2031    3.3152
   -3.9084   -0.6861    0.3852
   -3.0533   -0.7945    1.9393
   -2.4702    0.3293   -1.4940
    0.4053    0.1452   -1.1343
   -0.4498    0.2537   -2.6884
   -0.9755   -2.1623   -2.5679
   -0.1203   -2.2709   -1.0138
    2.4937   -1.5468   -1.1754
    2.4008   -3.2671   -1.6111
    4.3123   -2.6161   -2.8587
    3.7199   -0.9766   -3.1601
    3.3717   -2.1503   -5.2625
    2.7622   -3.6244   -4.4707
@<BUDE>CONF  35
   -5.8870    0.3494    1.1143
   -5.2516    0.4487   -0.1629
   -4.2048    1.3227   -0.2936
   -4.3185    2.5643    0.3430
   -3.2998    3.5186    0.2737
   -2.1382    3.2358   -0.4547
   -2.0195    2.0051   -1.1112
   -3.0386    1.0499   -1.0184
   -0.8984    1.7338   -1.8505
    0.3667    2.1454   -1.3261
    0.6098    1.4588   -0.0034
    0.5901    2.1086    1.0406
    0.8455    0.1503    0.0327
    1.0821   -0.5182    1.3204
    1.3249   -2.0079    1.0828
    2.5977   -2.1885    0.3699
    3.8586   -2.5050    1.0560
    4.9190   -2.2779   -0.0374
    4.3125   -2.7950   -1.3551
    2.6591   -2.0587   -1.3486
    1.7132   -2.9513   -1.9432
    2.7246   -0.6754   -1.7054
   -6.3034    1.3167    1.3876
   -6.6847   -0.3888    1.0653
   -5.1555    0.0449    1.8598
   -5.2175    2.7863    0.8989
   -3.4084    4.4683    0.7764
   -1.3382    3.9590   -0.5115
   -2.8665    0.1152   -1.5314
    0.3659    3.2235   -1.1796
    1.1552    1.8743   -2.0250
    0.8619   -0.3844   -0.8240
    0.2120   -0.3909    1.9611
    1.9547   -0.0814    1.8015
    0.5135   -2.4173    0.4844
    1.3687   -2.5259    2.0385
    3.9827   -1.8018    1.8769
    3.8898   -3.5221    1.4412
    5.8013   -2.8711    0.1936
    5.2089   -1.2316   -0.1078
    4.8608   -2.4053   -2.2102
    4.2513   -3.8794   -1.4184
@<BUDE>CONF  36
   -4.4569    3.7481    1.4497
   -3.4858    3.9351    0.4168
   -2.1640    3.7802    0.7418
   -1.7385    4.2935    1.9727
   -0.4114    4.1769    2.3951
    0.5219    3.5395    1.5690
    0.1135    3.0377    0.3275
   -1.2228    3.1437   -0.0760
    1.0280    2.4395   -0.4988
    2.0036    1.5776    0.0929
    1.3071    0.4286    0.7819
    1.3075    0.3554    2.0096
    0.6927   -0.5049    0.0607
    0.0146   -1.6234    0.7315
   -0.6048   -2.5453   -0.3178
    0.4641   -3.2068   -1.0799
    1.4913   -4.0475   -0.4484
    2.1203   -4.7887   -1.6428
    2.1956   -3.7762   -2.8008
    0.5422   -3.0399   -2.7943
   -0.4037   -3.9325   -3.3889
    0.6077   -1.6566   -3.1511
   -4.2845    4.4714    2.2440
   -5.4542    3.8903    1.0390
   -4.3694    2.7405    1.8506
   -2.4561    4.7921    2.6074
   -0.1071    4.5774    3.3508
    1.5496    3.4338    1.8839
   -1.4685    2.7129   -1.0354
    2.5878    2.1360    0.8213
    2.6627    1.1897   -0.6810
    0.6917   -0.4457   -0.9475
   -0.7679   -1.2369    1.3811
    0.7357   -2.1825    1.3242
   -1.2238   -1.9605   -0.9951
   -1.2167   -3.2977    0.1754
    2.2144   -3.3931    0.0339
    1.0828   -4.7401    0.2846
    1.4660   -5.6056   -1.9395
    3.0988   -5.1954   -1.3959
    2.9220   -2.9959   -2.5832
    2.4139   -4.2252   -3.7675
@<BUDE>CONF  37
   -0.1300   -2.0503    5.2248
   -1.2151   -1.1576    4.9594
   -0.9324    0.0311    4.3400
    0.2275    0.7059    4.7389
    0.6034    1.9210    4.1597
   -0.1989    2.4866    3.1615
   -1.3710    1.8313    2.7662
   -1.7268    0.6051    3.3404
   -2.1762    2.3941    1.8113
   -2.7560    1.5314    0.8293
   -1.6580    0.8519    0.0464
   -1.4591   -0.3539    0.1842
   -0.9054    1.5580   -0.7926
    0.1635    0.8965   -1.5548
   -0.4559   -0.0254   -2.6041
    0.6130   -0.6869   -3.3662
    1.6402   -1.5276   -2.7347
    2.2692   -2.2688   -3.9291
    2.3445   -1.2563   -5.0871
    0.6911   -0.5200   -5.0806
   -0.2548   -1.4126   -5.6752
    0.7566    0.8633   -5.4374
    0.5867   -1.5634    5.8828
   -0.5102   -2.9499    5.7041
    0.3577   -2.3156    4.2892
    0.8430    0.2741    5.5141
    1.5049    2.4215    4.4810
    0.0815    3.4209    2.6979
   -2.6316    0.1473    2.9687
   -3.3750    2.1160    0.1520
   -3.3678    0.7789    1.3226
   -1.0678    2.5483   -0.9066
    0.7828    0.3108   -0.8786
    0.7757    1.6479   -2.0492
   -1.0749    0.5594   -3.2814
   -1.0678   -0.7778   -2.1109
    2.3633   -0.8732   -2.2524
    1.2317   -2.2202   -2.0017
    1.6149   -3.0857   -4.2258
    3.2477   -2.6755   -3.6822
    3.0709   -0.4760   -4.8695
    2.5628   -1.7053   -6.0538
@<BUDE>CONF  38
    1.7426    5.0622    1.6778
    0.4681    4.7134    2.2244
   -0.4721    4.1879    1.3777
   -0.5761    4.7514    0.1005
   -1.4996    4.2780   -0.8356
   -2.3496    3.2201   -0.4917
   -2.2685    2.6596    0.7885
   -1.3262    3.1299    1.7108
   -3.1177    1.6442    1.1417
   -2.5858    0.5615    1.9096
   -1.4878   -0.1180    1.1268
   -0.3175   -0.0145    1.4906
   -1.7865   -0.8288    0.0430
   -0.7176   -1.4903   -0.7191
   -0.1492   -2.6471    0.1014
    0.9197   -3.3086   -0.6607
    1.9469   -4.1493   -0.0292
    2.5759   -4.8905   -1.2236
    2.6512   -3.8780   -2.3816
    0.9978   -3.1417   -2.3751
    0.0519   -4.0343   -2.9697
    1.0633   -1.7584   -2.7319
    1.6116    5.8219    0.9101
    2.3813    5.4508    2.4682
    2.2028    4.1789    1.2401
    0.0741    5.5725   -0.1631
   -1.5590    4.7261   -1.8165
   -3.0633    2.8370   -1.2061
   -1.3062    2.6334    2.6697
   -3.3758   -0.1557    2.1223
   -2.1807    0.9437    2.8443
   -2.7472   -0.9145   -0.2566
    0.0736   -0.7743   -0.9317
   -1.1216   -1.8736   -1.6538
   -0.9394   -3.3643    0.3140
    0.2558   -2.2651    1.0362
    2.6700   -3.4949    0.4531
    1.5384   -4.8419    0.7038
    1.9216   -5.7074   -1.5203
    3.5544   -5.2972   -0.9767
    3.3776   -3.0977   -2.1640
    2.8695   -4.3270   -3.3483
@<BUDE>CONF  39
   -6.4977    1.8907    0.9575
   -5.3065    1.1163    0.7965
   -4.2446    1.6967    0.1544
   -4.5230    2.4858   -0.9679
   -3.5070    3.1250   -1.6837
   -2.1758    2.9704   -1.2789
   -1.8820    2.1691   -0.1692
   -2.9101    1.5496    0.5511
   -0.5790    1.9893    0.2143
    0.4022    1.8055   -0.8095
    1.7613    1.6264   -0.1765
    2.6137    2.5058   -0.2891
    2.0369    0.5169    0.5032
    1.0181   -0.5343    0.6377
    1.5865   -1.6911    1.4582
    2.6554   -2.3526    0.6961
    3.6826   -3.1933    1.3276
    4.3116   -3.9345    0.1332
    4.3869   -2.9220   -1.0248
    2.7335   -2.1857   -1.0183
    1.7876   -3.0783   -1.6129
    2.7990   -0.8024   -1.3751
   -6.8868    2.1642   -0.0211
   -7.2412    1.3042    1.4931
   -6.2699    2.7920    1.5227
   -5.5490    2.5996   -1.2854
   -3.7463    3.7321   -2.5443
   -1.3794    3.4640   -1.8161
   -2.6093    0.9666    1.4090
    0.4175    2.6781   -1.4591
    0.1559    0.9216   -1.3942
    2.9457    0.3960    0.9270
    0.7358   -0.8949   -0.3492
    0.1426   -0.1293    1.1409
    0.7963   -2.4083    1.6708
    1.9915   -1.3091    2.3930
    4.4057   -2.5389    1.8099
    3.2741   -3.8859    2.0606
    3.6573   -4.7514   -0.1635
    5.2901   -4.3412    0.3801
    5.1133   -2.1417   -0.8072
    4.6052   -3.3710   -1.9915
@<BUDE>CONF  40
    3.9448   -1.6244    1.7248
    2.8143   -1.2691    0.9245
    2.1716   -0.0926    1.2066
    1.9949    0.2380    2.5554
    1.3582    1.4206    2.9420
    0.8762    2.2965    1.9620
    1.0302    1.9692    0.6097
    1.6867    0.7909    0.2349
    0.5342    2.8072   -0.3540
   -0.7431    3.4088   -0.1270
   -1.7896    2.3291    0.0111
   -2.3142    2.1161    1.1029
   -2.1442    1.6078   -1.0486
   -3.1630    0.5566   -0.9141
   -2.5946   -0.6002   -0.0936
   -1.5257   -1.2617   -0.8557
   -0.4985   -2.1024   -0.2242
    0.1305   -2.8436   -1.4186
    0.2058   -1.8311   -2.5766
   -1.4476   -1.0948   -2.5701
   -2.3935   -1.9874   -3.1647
   -1.3821    0.2885   -2.9269
    3.6363   -1.7241    2.7633
    4.3533   -2.5700    1.3747
    4.7035   -0.8488    1.6441
    2.3597   -0.4407    3.3121
    1.2368    1.6563    3.9889
    0.3891    3.2184    2.2437
    1.7887    0.6167   -0.8260
   -0.9959    4.0527   -0.9668
   -0.7093    3.9993    0.7863
   -1.7140    1.7819   -1.9457
   -3.4453    0.1960   -1.9010
   -4.0385    0.9616   -0.4109
   -3.3848   -1.3174    0.1190
   -2.1896   -0.2182    0.8412
    0.2246   -1.4480    0.2581
   -0.9070   -2.7950    0.5088
   -0.5238   -3.6605   -1.7153
    1.1090   -3.2503   -1.1717
    0.9322   -1.0508   -2.3590
    0.4241   -2.2801   -3.5433
@<BUDE>CONF  41
   -5.3284    1.0811    2.5421
   -5.0630    0.1793    1.4645
   -4.3493    0.6497    0.3939
   -4.6365    1.9448   -0.0533
   -3.9558    2.5142   -1.1330
   -2.9672    1.7744   -1.7927
   -2.6829    0.4715   -1.3671
   -3.3582   -0.0808   -0.2722
   -1.7377   -0.2689   -2.0271
   -0.5417    0.3922   -2.4482
    0.1812    0.9401   -1.2410
    0.2361    2.1545   -1.0547
    0.7592    0.1087   -0.3786
    1.4630    0.6420    0.7967
    2.0314   -0.5148    1.6172
    3.1003   -1.1763    0.8551
    4.1275   -2.0170    1.4866
    4.7565   -2.7582    0.2922
    4.8318   -1.7457   -0.8658
    3.1784   -1.0094   -0.8593
    2.2325   -1.9020   -1.4539
    3.2439    0.3739   -1.2161
   -5.9110    1.9232    2.1743
   -5.8882    0.5632    3.3180
   -4.3876    1.4418    2.9523
   -5.4043    2.5135    0.4502
   -4.1920    3.5168   -1.4578
   -2.4261    2.2026   -2.6235
   -3.0691   -1.0816    0.0130
   -0.7956    1.2096   -3.1199
    0.1022   -0.3162   -2.9651
    0.7148   -0.8888   -0.5305
    0.7676    1.2126    1.4087
    2.2755    1.2885    0.4712
    1.2412   -1.2320    1.8298
    2.4364   -0.1328    2.5520
    4.8506   -1.3626    1.9689
    3.7190   -2.7096    2.2196
    4.1022   -3.5751   -0.0045
    5.7350   -3.1649    0.5391
    5.5582   -0.9654   -0.6482
    5.0501   -2.1947   -1.8325
@<BUDE>CONF  42
   -6.0029    0.3595   -0.3274
   -5.1749    0.3894    0.8380
   -4.2406   -0.6012    0.9881
   -4.6186   -1.9023    0.6361
   -3.7325   -2.9774    0.7468
   -2.4365   -2.7562    1.2279
   -2.0515   -1.4629    1.6005
   -2.9421   -0.3911    1.4670
   -0.7947   -1.2446    2.1003
    0.2987   -1.9363    1.4914
    0.3955   -1.5418    0.0371
    0.1142   -2.3550   -0.8416
    0.7853   -0.3140   -0.2939
    1.1217    0.6580    0.7564
    1.5354    1.9802    0.1119
    2.8082    1.7996   -0.6010
    4.0691    1.4831    0.0851
    5.1295    1.7102   -1.0083
    4.5230    1.1931   -2.3260
    2.8696    1.9294   -2.3195
    1.9237    1.0368   -2.9141
    2.9351    3.3127   -2.6763
   -6.5793   -0.5632   -0.3384
   -6.6802    1.2108   -0.3122
   -5.3781    0.4082   -1.2167
   -5.6206   -2.0752    0.2721
   -4.0454   -3.9720    0.4655
   -1.7368   -3.5746    1.3118
   -2.5672    0.5808    1.7521
    0.1361   -3.0096    1.5653
    1.2237   -1.6731    2.0003
    0.8505   -0.0490   -1.2663
    1.9444    0.2746    1.3562
    0.2538    0.8210    1.3919
    1.6568    2.7380    0.8832
    0.7683    2.2973   -0.5915
    4.1932    2.1863    0.9060
    4.1003    0.4660    0.4703
    6.0118    1.1170   -0.7773
    5.4194    2.7565   -1.0787
    5.0713    1.5828   -3.1811
    4.4618    0.1087   -2.3893
@<BUDE>CONF  43
   -6.4090    0.9010    0.7966
   -5.0924    0.3744    0.6119
   -4.0531    1.2617    0.5152
   -4.2692    2.4290   -0.2266
   -3.2720    3.3970   -0.3755
   -2.0221    3.1971    0.2226
   -1.7869    2.0256    0.9519
   -2.8000    1.0724    1.1099
   -0.5565    1.8099    1.5145
    0.6007    2.1666    0.7539
    0.6250    1.3688   -0.5279
    0.4269    1.9280   -1.6052
    0.8607    0.0603   -0.4918
    1.0973   -0.6082    0.7959
    1.3401   -2.0979    0.5583
    2.6129   -2.2785   -0.1546
    3.8738   -2.5950    0.5315
    4.9342   -2.3679   -0.5619
    4.3277   -2.8850   -1.8796
    2.6743   -2.1487   -1.8731
    1.7284   -3.0413   -2.4677
    2.7398   -0.7654   -2.2299
   -6.6679    1.5335   -0.0499
   -7.1201    0.0808    0.8683
   -6.4387    1.4886    1.7118
   -5.2306    2.5805   -0.6946
   -3.4631    4.2916   -0.9494
   -1.2434    3.9389    0.1241
   -2.5529    0.2057    1.7050
    1.4965    1.9502    1.3321
    0.5676    3.2284    0.5188
    0.8771   -0.4744   -1.3485
    0.2272   -0.4809    1.4366
    1.9699   -0.1714    1.2770
    0.5287   -2.5073   -0.0401
    1.3839   -2.6159    1.5140
    3.9979   -1.8918    1.3524
    3.9050   -3.6121    0.9167
    5.8165   -2.9611   -0.3309
    5.2241   -1.3216   -0.6323
    4.8760   -2.4953   -2.7347
    4.2665   -3.9694   -1.9429
@<BUDE>CONF  44
    4.9142    3.0462    2.0727
    3.5644    3.1584    1.6142
    2.8003    2.0218    1.5816
    3.4161    0.8436    1.1428
    2.7207   -0.3672    1.0823
    1.3735   -0.4084    1.4607
    0.7407    0.7663    1.8841
    1.4532    1.9691    1.9586
   -0.5854    0.7391    2.2272
   -1.4072    1.8348    1.8162
   -1.4076    1.9247    0.3088
   -0.8404    2.8606   -0.2524
   -2.0220    0.9912   -0.4124
   -2.7001   -0.1273    0.2584
   -3.3195   -1.0492   -0.7909
   -2.2506   -1.7107   -1.5530
   -1.2234   -2.5514   -0.9215
   -0.5944   -3.2926   -2.1159
   -0.5191   -2.2801   -3.2739
   -2.1725   -1.5438   -3.2674
   -3.1184   -2.4364   -3.8620
   -2.1070   -0.1605   -3.6242
    5.4622    2.3676    1.4224
    5.3854    4.0266    2.0544
    4.9202    2.6592    3.0895
    4.4533    0.8760    0.8435
    3.2179   -1.2643    0.7440
    0.8239   -1.3376    1.4277
    0.9054    2.8283    2.3163
   -1.0151    2.7598    2.2339
   -2.4242    1.6788    2.1698
   -2.0230    1.0504   -1.4206
   -3.4826    0.2592    0.9080
   -1.9790   -0.6864    0.8511
   -3.9385   -0.4644   -1.4682
   -3.9314   -1.8016   -0.2977
   -0.5003   -1.8970   -0.4392
   -1.6319   -3.2440   -0.1885
   -1.2487   -4.1095   -2.4126
    0.3841   -3.6993   -1.8690
    0.2073   -1.4998   -3.0563
   -0.3008   -2.7291   -4.2406
@<BUDE>CONF  45
   -4.3208   -0.7334    4.3919
   -3.1399   -1.5294    4.2632
   -2.8065   -1.9873    3.0158
   -3.8469   -2.4409    2.1964
   -3.6066   -2.9191    0.9053
   -2.2954   -2.9553    0.4161
   -1.2437   -2.5217    1.2320
   -1.4992   -2.0270    2.5164
    0.0449   -2.5825    0.7707
    0.9161   -1.4882    1.0678
    0.3568   -0.2224    0.4636
   -0.0940    0.6605    1.1915
    0.3515   -0.0622   -0.8568
   -0.1930    1.1701   -1.4450
    0.7379    2.3395   -1.1275
    2.0107    2.1589   -1.8404
    3.2716    1.8424   -1.1543
    4.3320    2.0695   -2.2477
    3.7255    1.5524   -3.5654
    2.0721    2.2887   -3.5589
    1.1262    1.3961   -4.1535
    2.1376    3.6720   -3.9157
   -5.1847   -1.3135    4.0742
   -4.4453   -0.4358    5.4310
   -4.2294    0.1534    3.7685
   -4.8579   -2.4204    2.5756
   -4.4259   -3.2602    0.2898
   -2.0933   -3.3142   -0.5823
   -0.6412   -1.6888    3.0784
    1.9013   -1.6842    0.6499
    0.9959   -1.3699    2.1464
    0.7215   -0.7865   -1.4555
   -1.1779    1.3677   -1.0272
   -0.2726    1.0534   -2.5238
    0.9248    2.3745   -0.0562
    0.2735    3.2704   -1.4459
    3.3957    2.5456   -0.3334
    3.3028    0.8253   -0.7691
    5.2143    1.4763   -2.0167
    4.6219    3.1158   -2.3181
    4.2738    1.9421   -4.4205
    3.6643    0.4680   -3.6287
@<BUDE>CONF  46
   -2.4757   -4.6698   -2.1513
   -2.8107   -4.1841   -0.8487
   -1.8926   -3.4023   -0.1987
   -0.5457   -3.7703   -0.3001
    0.4641   -3.0306    0.3215
    0.1271   -1.8977    1.0717
   -1.2177   -1.5291    1.1962
   -2.2184   -2.2671    0.5530
   -1.5570   -0.4390    1.9535
   -2.5793    0.4297    1.4583
   -2.1474    1.0091    0.1324
   -2.7120    0.6631   -0.9039
   -1.1557    1.8942    0.0853
   -0.4808    2.3077    1.3241
    0.6113    3.3238    0.9932
    1.6802    2.6623    0.2311
    2.7074    1.8216    0.8626
    3.3364    1.0804   -0.3318
    3.4117    2.0929   -1.4898
    1.7583    2.8292   -1.4833
    0.8124    1.9366   -2.0779
    1.8238    4.2125   -1.8401
   -1.5846   -5.2908   -2.0879
   -3.3025   -5.2596   -2.5414
   -2.2855   -3.8280   -2.8137
   -0.2854   -4.6485   -0.8723
    1.4969   -3.3317    0.2260
    0.8959   -1.3104    1.5516
   -3.2301   -1.9093    0.6751
   -2.7461    1.2366    2.1688
   -3.5008   -0.1330    1.3246
   -0.8660    2.2823   -0.8009
   -0.0338    1.4384    1.8018
   -1.2046    2.7608    1.9983
    1.0219    3.7290    1.9157
    0.1886    4.1307    0.3983
    3.4305    2.4760    1.3449
    2.2989    1.1290    1.5956
    2.6821    0.2635   -0.6285
    4.3149    0.6737   -0.0849
    4.1381    2.8732   -1.2722
    3.6300    1.6439   -2.4565
@<BUDE>CONF  47
    1.3582    5.8282   -1.3735
    0.3281    4.8376   -1.3239
    0.5550    3.7114   -0.5776
    1.8348    3.1471   -0.6351
    2.1640    2.0029    0.0969
    1.1931    1.3969    0.9031
   -0.0959    1.9405    0.9555
   -0.4079    3.0980    0.2326
   -1.0591    1.3352    1.7190
   -2.3831    1.2513    1.1856
   -2.3588    0.4535   -0.0962
   -2.5569    1.0127   -1.1735
   -2.1231   -0.8550   -0.0601
   -1.8865   -1.5235    1.2276
   -1.6437   -3.0132    0.9900
   -0.3709   -3.1938    0.2771
    0.8900   -3.5103    0.9632
    1.9504   -3.2832   -0.1302
    1.3439   -3.8003   -1.4479
   -0.3095   -3.0640   -1.4414
   -1.2554   -3.9566   -2.0360
   -0.2440   -1.6807   -1.7982
    2.2584    5.3932   -1.8025
    1.0288    6.6624   -1.9892
    1.5696    6.1812   -0.3664
    2.5823    3.6095   -1.2627
    3.1593    1.5876    0.0396
    1.4334    0.5170    1.4815
   -1.4151    3.4726    0.3406
   -2.7569    2.2525    0.9817
   -3.0343    0.7600    1.9055
   -2.1067   -1.3897   -0.9168
   -2.7566   -1.3962    1.8683
   -1.0139   -1.0867    1.7087
   -2.4551   -3.4226    0.3916
   -1.5999   -3.5312    1.9457
    1.0141   -2.8071    1.7841
    0.9212   -4.5274    1.3484
    2.8327   -3.8764    0.1008
    2.2403   -2.2369   -0.2006
    1.8922   -3.4106   -2.3030
    1.2827   -4.8847   -1.5112
@<BUDE>CONF  48
   -4.2397   -4.3722    3.3330
   -4.1433   -3.1929    2.5300
   -2.8939   -2.7599    2.1716
   -1.8853   -2.8293    3.1399
   -0.5779   -2.4184    2.8659
   -0.2641   -1.9171    1.5970
   -1.2675   -1.8253    0.6252
   -2.5690   -2.2579    0.9058
   -0.9742   -1.3077   -0.6089
   -1.9333   -0.4388   -1.2171
   -2.1428    0.7715   -0.3387
   -3.2077    0.9226    0.2577
   -1.1751    1.6748   -0.2100
    0.0977    1.4942   -0.9230
    1.0286    2.6636   -0.6055
    2.3014    2.4830   -1.3184
    3.5623    2.1665   -0.6323
    4.6227    2.3936   -1.7257
    4.0162    1.8765   -3.0434
    2.3628    2.6128   -3.0369
    1.4169    1.7202   -3.6315
    2.4283    3.9961   -3.3937
   -3.7255   -4.2097    4.2779
   -5.2872   -4.5960    3.5231
   -3.7794   -5.2064    2.8077
   -2.1282   -3.2088    4.1214
    0.1846   -2.4849    3.6278
    0.7432   -1.6029    1.3663
   -3.2838   -2.1785    0.1000
   -2.8770   -0.9666   -1.3373
   -1.5685   -0.1202   -2.1914
   -1.3142    2.4847    0.3771
   -0.0878    1.4598   -1.9945
    0.5636    0.5639   -0.6047
    1.2155    2.6986    0.4658
    0.5642    3.5945   -0.9239
    3.6864    2.8697    0.1886
    3.5935    1.1494   -0.2471
    5.5050    1.8004   -1.4947
    4.9126    3.4399   -1.7961
    4.5645    2.2662   -3.8985
    3.9550    0.7921   -3.1067
@<BUDE>CONF  49
    2.5478    0.6231    6.0636
    2.4750   -0.7190    5.5753
    1.4285   -1.0485    4.7550
    0.8256   -2.2969    4.9490
   -0.2533   -2.7185    4.1670
   -0.7431   -1.8803    3.1584
   -0.1376   -0.6368    2.9418
    0.9301   -0.2178    3.7443
   -0.5926    0.1757    1.9368
    0.3746    0.8820    1.1556
   -0.3325    1.7127    0.1115
   -0.3392    2.9393    0.2014
   -0.9487    1.1176   -0.9059
   -1.6371    1.9263   -1.9223
   -2.2565    1.0044   -2.9716
   -1.1876    0.3429   -3.7337
   -0.1604   -0.4978   -3.1022
    0.4686   -1.2390   -4.2966
    0.5439   -0.2265   -5.4546
   -1.1095    0.5098   -5.4481
   -2.0554   -0.3828   -6.0427
   -1.0440    1.8931   -5.8049
    1.6597    0.8427    6.6524
    3.4331    0.7343    6.6860
    2.6058    1.3114    5.2230
    1.2077   -2.9474    5.7219
   -0.7047   -3.6846    4.3378
   -1.5813   -2.1874    2.5505
    1.3308    0.7628    3.5339
    1.0355    0.1703    0.6653
    0.9582    1.5337    1.8025
   -0.9438    0.1103   -0.9807
   -0.9226    2.5920   -2.4019
   -2.4207    2.5143   -1.4491
   -2.8755    1.5892   -3.6489
   -2.8684    0.2520   -2.4784
    0.5627    0.1566   -2.6199
   -0.5689   -1.1904   -2.3692
   -0.1857   -2.0559   -4.5933
    1.4471   -1.6457   -4.0497
    1.2703    0.5538   -5.2370
    0.7622   -0.6755   -6.4213
@<BUDE>CONF  50
   -6.4003    0.7013    4.7764
   -5.8141    0.6999    3.4721
   -4.4870    1.0224    3.3637
   -4.0112    2.0702    4.1607
   -2.6714    2.4666    4.1256
   -1.7800    1.8094    3.2693
   -2.2468    0.7719    2.4536
   -3.5869    0.3713    2.5118
   -1.3864    0.1445    1.5915
   -1.8677   -0.1869    0.2864
   -0.7697   -0.8664   -0.4964
   -0.8556   -2.0633   -0.7659
    0.2912   -0.1701   -0.8948
    1.3601   -0.8315   -1.6569
    2.4522    0.1846   -1.9878
    3.5211   -0.4769   -2.7499
    4.5483   -1.3176   -2.1184
    5.1773   -2.0588   -3.3128
    5.2526   -1.0463   -4.4708
    3.5992   -0.3100   -4.4643
    2.6533   -1.2026   -5.0589
    3.6647    1.0733   -4.8211
   -6.3257    1.6982    5.2057
   -7.4472    0.4148    4.7031
   -5.8731   -0.0079    5.4110
   -4.6998    2.5828    4.8160
   -2.3264    3.2754    4.7526
   -0.7397    2.0979    3.2360
   -3.8688   -0.4510    1.8710
   -2.1719    0.7210   -0.2301
   -2.7193   -0.8585    0.3731
    0.3628    0.8129   -0.6741
    0.9508   -1.2366   -2.5800
    1.7842   -1.6382   -1.0626
    2.8628    0.5898   -1.0653
    2.0295    0.9915   -2.5827
    5.2714   -0.6632   -1.6361
    4.1398   -2.0102   -1.3854
    4.5230   -2.8757   -3.6095
    6.1558   -2.4655   -3.0659
    5.9790   -0.2660   -4.2532
    5.4709   -1.4953   -5.4375
