@<TRIPOS>MOLECULE
ZINC61646583
   53    54     0     0     0
SMALL
USER_CHARGES

@<TRIPOS>ATOM
      1 C1         -1.5057    8.9850   -1.4612 C.3       1 <0>        -0.1727
      2 C2         -1.4945    7.4780   -1.4624 C.2       1 <0>         0.5094
      3 O1         -0.9741    6.8761   -2.3780 O.2       1 <0>        -0.5291
      4 N1         -2.0627    6.7990   -0.4462 N.am      1 <0>        -0.6649
      5 C3         -2.1370    5.3989   -0.4930 C.ar      1 <0>         0.0992
      6 C4         -1.1159    4.6691   -1.0836 C.ar      1 <0>        -0.0654
      7 C5         -1.1887    3.2904   -1.1305 C.ar      1 <0>        -0.1341
      8 C6         -2.2838    2.6321   -0.5866 C.ar      1 <0>         0.1883
      9 C7         -3.3078    3.3586    0.0054 C.ar      1 <0>        -0.2193
     10 C8         -3.2336    4.7404    0.0588 C.ar      1 <0>         0.1218
     11 O2         -4.2326    5.4538    0.6435 O.3       1 <0>        -0.3161
     12 C9         -5.3261    4.7124    1.1883 C.3       1 <0>         0.0284
     13 N2         -2.3554    1.2338   -0.6359 N.am      1 <0>        -0.6855
     14 C10        -1.2328    0.4970   -0.5191 C.2       1 <0>         0.7035
     15 O3         -0.1496    1.0455   -0.4539 O.2       1 <0>        -0.5662
     16 N3         -1.3110   -0.8477   -0.4746 N.am      1 <0>        -0.7422
     17 C11        -0.0908   -1.6486   -0.3476 C.3       1 <0>         0.1412
     18 C12        -0.4563   -3.1340   -0.3206 C.3       1 <0>        -0.0858
     19 C13         0.7989   -3.9578   -0.1900 C.ar      1 <0>        -0.1209
     20 C14         1.4714   -4.3753   -1.3236 C.ar      1 <0>        -0.0699
     21 C15         2.6219   -5.1310   -1.2066 C.ar      1 <0>        -0.1435
     22 C16         3.1027   -5.4705    0.0497 C.ar      1 <0>         0.1285
     23 C17         2.4263   -5.0499    1.1856 C.ar      1 <0>        -0.2085
     24 C18         1.2791   -4.2901    1.0633 C.ar      1 <0>        -0.0706
     25 O4          4.2341   -6.2141    0.1674 O.3       1 <0>        -0.2897
     26 C19         4.6705   -6.5260    1.4919 C.3       1 <0>         0.0392
     27 C20         5.9304   -7.3502    1.4246 C.2       1 <0>         0.5189
     28 O5          6.4075   -7.6418    0.3484 O.2       1 <0>        -0.5163
     29 N4          6.5269   -7.7632    2.5604 N.am      1 <0>        -0.8501
     30 H1         -1.0038    9.3528   -2.3561 H         1 <0>         0.0965
     31 H2         -2.5360    9.3406   -1.4504 H         1 <0>         0.0914
     32 H3         -0.9856    9.3515   -0.5762 H         1 <0>         0.0912
     33 H4         -2.4202    7.2785    0.3175 H         1 <0>         0.4136
     34 H5         -0.2635    5.1791   -1.5075 H         1 <0>         0.1501
     35 H6         -0.3929    2.7238   -1.5910 H         1 <0>         0.1469
     36 H7         -4.1595    2.8464    0.4279 H         1 <0>         0.1349
     37 H8         -6.0508    5.4007    1.6232 H         1 <0>         0.1017
     38 H9         -5.8033    4.1344    0.3970 H         1 <0>         0.0561
     39 H10        -4.9581    4.0367    1.9604 H         1 <0>         0.0561
     40 H11        -3.2128    0.7959   -0.7540 H         1 <0>         0.4065
     41 H12        -2.1751   -1.2853   -0.5266 H         1 <0>         0.3980
     42 H13         0.5635   -1.4508   -1.1966 H         1 <0>         0.0719
     43 H14         0.4230   -1.3839    0.5765 H         1 <0>         0.0706
     44 H15        -1.1106   -3.3318    0.5284 H         1 <0>         0.0792
     45 H16        -0.9701   -3.3987   -1.2447 H         1 <0>         0.0805
     46 H17         1.0967   -4.1108   -2.3014 H         1 <0>         0.1321
     47 H18         3.1465   -5.4575   -2.0924 H         1 <0>         0.1348
     48 H19         2.7985   -5.3130    2.1647 H         1 <0>         0.1285
     49 H20         0.7546   -3.9588    1.9473 H         1 <0>         0.1266
     50 H21         4.8691   -5.6025    2.0358 H         1 <0>         0.0957
     51 H22         3.8937   -7.0911    2.0068 H         1 <0>         0.0953
     52 H23         6.1453   -7.5299    3.4211 H         1 <0>         0.4036
     53 H24         7.3378   -8.2937    2.5171 H         1 <0>         0.4104
@<TRIPOS>BOND
     1    1    2 1
     2    1   30 1
     3    1   31 1
     4    1   32 1
     5    2    3 2
     6    2    4 am
     7    4    5 1
     8    4   33 1
     9    5   10 ar
    10    5    6 ar
    11    6    7 ar
    12    6   34 1
    13    7    8 ar
    14    7   35 1
    15    8    9 ar
    16    8   13 1
    17    9   10 ar
    18    9   36 1
    19   10   11 1
    20   11   12 1
    21   12   37 1
    22   12   38 1
    23   12   39 1
    24   13   14 am
    25   13   40 1
    26   14   15 2
    27   14   16 am
    28   16   17 1
    29   16   41 1
    30   17   18 1
    31   17   42 1
    32   17   43 1
    33   18   19 1
    34   18   44 1
    35   18   45 1
    36   19   24 ar
    37   19   20 ar
    38   20   21 ar
    39   20   46 1
    40   21   22 ar
    41   21   47 1
    42   22   23 ar
    43   22   25 1
    44   23   24 ar
    45   23   48 1
    46   24   49 1
    47   25   26 1
    48   26   27 1
    49   26   50 1
    50   26   51 1
    51   27   28 2
    52   27   29 am
    53   29   52 1
    54   29   53 1
@<BUDE>CONF  1
   -7.6586   -1.9455   -2.1072
   -6.3567   -1.9648   -1.3424
   -5.8429   -3.0372   -1.0282
   -5.7653   -0.8214   -1.0082
   -4.5454   -0.8395   -0.2915
   -3.9246   -2.0425    0.0742
   -2.7834   -2.0255    0.8849
   -2.1845   -0.8083    1.2307
   -2.7950    0.3895    0.8403
   -3.9474    0.3806    0.0456
   -4.5447    1.5226   -0.4190
   -3.7009    2.5800   -0.8825
   -0.9591   -0.8076    1.9382
   -0.3828    0.3440    2.2708
   -0.9242    1.4265    1.9583
    0.7690    0.3431    2.9359
    1.4058    1.6159    3.3036
    1.7776    2.3833    2.0356
    2.7940    1.5910    1.2487
    4.1642    1.7657    1.4768
    5.1061    1.0051    0.7734
    4.6853    0.0816   -0.1859
    3.3175   -0.0834   -0.4345
    2.3779    0.6665    0.2832
    5.6094   -0.6579   -0.8758
    5.3887   -0.8736   -2.2721
    6.5154   -1.7057   -2.8362
    6.3266   -2.8894   -3.1123
    7.7112   -1.1582   -3.0342
   -7.9338   -0.9162   -2.3275
   -7.5400   -2.4969   -3.0377
   -8.4381   -2.4095   -1.5068
   -6.1863    0.0598   -1.2656
   -4.3095   -2.9944   -0.2610
   -2.3550   -2.9537    1.2333
   -2.3187    1.3066    1.1540
   -3.1025    2.2253   -1.7191
   -4.3149    3.4184   -1.2047
   -3.0445    2.8994   -0.0758
   -0.5217   -1.6822    2.1907
    1.2054   -0.5321    3.1880
    2.3041    1.4168    3.8843
    0.7134    2.2090    3.8973
    2.2004    3.3482    2.3074
    0.8867    2.5346    1.4298
    4.5140    2.4876    2.1998
    6.1621    1.1309    0.9614
    2.9918   -0.7941   -1.1796
    1.3283    0.5182    0.0767
    5.3529    0.0850   -2.7853
    4.4451   -1.3966   -2.4130
    8.4649   -1.7148   -3.4115
    7.8651   -0.1862   -2.8070
@<BUDE>CONF  2
   -7.6586   -1.9455   -2.1072
   -6.3567   -1.9648   -1.3424
   -5.8429   -3.0372   -1.0282
   -5.7653   -0.8214   -1.0082
   -4.5454   -0.8395   -0.2915
   -3.9246   -2.0425    0.0742
   -2.7834   -2.0255    0.8849
   -2.1845   -0.8083    1.2307
   -2.7950    0.3895    0.8403
   -3.9474    0.3806    0.0456
   -4.5447    1.5226   -0.4190
   -3.7009    2.5800   -0.8825
   -0.9591   -0.8076    1.9382
   -0.3828    0.3440    2.2708
   -0.9242    1.4265    1.9583
    0.7690    0.3431    2.9359
    1.4058    1.6159    3.3036
    1.7776    2.3833    2.0356
    2.7940    1.5910    1.2487
    4.1642    1.7657    1.4768
    5.1061    1.0051    0.7734
    4.6853    0.0816   -0.1859
    3.3175   -0.0834   -0.4345
    2.3779    0.6665    0.2832
    5.6094   -0.6579   -0.8758
    5.3887   -0.8736   -2.2721
    6.5154   -1.7057   -2.8362
    6.3266   -2.8894   -3.1123
    7.7112   -1.1582   -3.0342
   -7.9338   -0.9162   -2.3275
   -7.5400   -2.4969   -3.0377
   -8.4381   -2.4095   -1.5068
   -6.1863    0.0598   -1.2656
   -4.3095   -2.9944   -0.2610
   -2.3550   -2.9537    1.2333
   -2.3187    1.3066    1.1540
   -3.1025    2.2253   -1.7191
   -4.3149    3.4184   -1.2047
   -3.0445    2.8994   -0.0758
   -0.5217   -1.6822    2.1907
    1.2054   -0.5321    3.1880
    2.3041    1.4168    3.8843
    0.7134    2.2090    3.8973
    2.2004    3.3482    2.3074
    0.8867    2.5346    1.4298
    4.5140    2.4876    2.1998
    6.1621    1.1309    0.9614
    2.9918   -0.7941   -1.1796
    1.3283    0.5182    0.0767
    5.3529    0.0850   -2.7853
    4.4451   -1.3966   -2.4130
    7.8651   -0.1862   -2.8072
    8.4648   -1.7147   -3.4117
@<BUDE>CONF  3
   -7.7762   -3.6391   -4.6070
   -6.4743   -3.6584   -3.8422
   -5.9605   -4.7308   -3.5280
   -5.8829   -2.5150   -3.5080
   -4.6630   -2.5331   -2.7913
   -4.0422   -3.7361   -2.4256
   -2.9010   -3.7191   -1.6149
   -2.3021   -2.5019   -1.2691
   -2.9126   -1.3041   -1.6595
   -4.0650   -1.3130   -2.4542
   -4.6623   -0.1710   -2.9188
   -3.8185    0.8864   -3.3823
   -1.0767   -2.5012   -0.5616
   -0.5004   -1.3496   -0.2290
   -1.0418   -0.2671   -0.5415
    0.6514   -1.3505    0.4361
    1.2882   -0.0777    0.8038
    2.5889   -0.3584    1.5548
    3.2432    0.9491    1.9325
    4.1504    1.5680    1.0642
    4.7294    2.7983    1.3977
    4.4266    3.4075    2.6173
    3.5365    2.7842    3.5000
    2.9461    1.5624    3.1555
    4.9982    4.6092    2.9428
    5.4317    4.8022    4.2918
    6.4863    3.7766    4.6323
    6.2073    2.8277    5.3636
    7.7162    3.8997    4.1412
   -8.0514   -2.6098   -4.8273
   -7.6576   -4.1905   -5.5375
   -8.5557   -4.1031   -4.0066
   -6.3039   -1.6338   -3.7654
   -4.4271   -4.6880   -2.7608
   -2.4726   -4.6473   -1.2665
   -2.4363   -0.3870   -1.3458
   -3.2201    0.5317   -4.2189
   -4.4325    1.7248   -3.7045
   -3.1621    1.2058   -2.5756
   -0.6393   -3.3758   -0.3091
    1.0878   -2.2257    0.6882
    0.6161    0.4924    1.4416
    1.5047    0.4923   -0.0973
    3.2598   -0.9292    0.9162
    2.3712   -0.9290    2.4551
    4.4147    1.1065    0.1243
    5.4178    3.2813    0.7200
    3.3057    3.2526    4.4453
    2.2592    1.1033    3.8510
    4.5840    4.6887    4.9642
    5.8489    5.8014    4.3985
    7.9441    4.6792    3.5408
    8.4215    3.2136    4.3688
@<BUDE>CONF  4
   -7.7762   -3.6391   -4.6070
   -6.4743   -3.6584   -3.8422
   -5.9605   -4.7308   -3.5280
   -5.8829   -2.5150   -3.5080
   -4.6630   -2.5331   -2.7913
   -4.0422   -3.7361   -2.4256
   -2.9010   -3.7191   -1.6149
   -2.3021   -2.5019   -1.2691
   -2.9126   -1.3041   -1.6595
   -4.0650   -1.3130   -2.4542
   -4.6623   -0.1710   -2.9188
   -3.8185    0.8864   -3.3823
   -1.0767   -2.5012   -0.5616
   -0.5004   -1.3496   -0.2290
   -1.0418   -0.2671   -0.5415
    0.6514   -1.3505    0.4361
    1.2882   -0.0777    0.8038
    2.5889   -0.3584    1.5548
    3.2432    0.9491    1.9325
    4.1504    1.5680    1.0642
    4.7294    2.7983    1.3977
    4.4266    3.4075    2.6173
    3.5365    2.7842    3.5000
    2.9461    1.5624    3.1555
    4.9982    4.6092    2.9428
    5.4317    4.8022    4.2918
    6.4863    3.7766    4.6323
    6.2073    2.8277    5.3636
    7.7162    3.8997    4.1412
   -8.0514   -2.6098   -4.8273
   -7.6576   -4.1905   -5.5375
   -8.5557   -4.1031   -4.0066
   -6.3039   -1.6338   -3.7654
   -4.4271   -4.6880   -2.7608
   -2.4726   -4.6473   -1.2665
   -2.4363   -0.3870   -1.3458
   -3.2201    0.5317   -4.2189
   -4.4325    1.7248   -3.7045
   -3.1621    1.2058   -2.5756
   -0.6393   -3.3758   -0.3091
    1.0878   -2.2257    0.6882
    0.6161    0.4924    1.4416
    1.5047    0.4923   -0.0973
    3.2598   -0.9292    0.9162
    2.3712   -0.9290    2.4551
    4.4147    1.1065    0.1243
    5.4178    3.2813    0.7200
    3.3057    3.2526    4.4453
    2.2592    1.1033    3.8510
    4.5840    4.6887    4.9642
    5.8489    5.8014    4.3985
    8.4215    3.2137    4.3690
    7.9442    4.6793    3.5409
@<BUDE>CONF  5
   -8.1487   -1.6820   -3.2306
   -6.8468   -1.7013   -2.4658
   -6.3330   -2.7737   -2.1516
   -6.2554   -0.5579   -2.1316
   -5.0355   -0.5760   -1.4149
   -4.4147   -1.7790   -1.0492
   -3.2735   -1.7620   -0.2385
   -2.6746   -0.5448    0.1073
   -3.2851    0.6530   -0.2831
   -4.4375    0.6441   -1.0778
   -5.0348    1.7861   -1.5424
   -4.1910    2.8435   -2.0059
   -1.4492   -0.5441    0.8148
   -0.8729    0.6075    1.1474
   -1.4143    1.6900    0.8349
    0.2789    0.6066    1.8125
    0.9157    1.8794    2.1802
    2.2164    1.5987    2.9312
    3.1757    0.8709    2.0201
    3.1798   -0.5279    1.9622
    4.0436   -1.2022    1.0908
    4.9320   -0.4825    0.2889
    4.9484    0.9158    0.3569
    4.0710    1.5873    1.2168
    5.7792   -1.1452   -0.5595
    7.1213   -0.6656   -0.6770
    7.8004   -0.7383    0.6697
    7.9979    0.2902    1.3147
    8.1847   -1.9145    1.1576
   -8.4239   -0.6527   -3.4509
   -8.0301   -2.2334   -4.1611
   -8.9282   -2.1460   -2.6302
   -6.6764    0.3233   -2.3890
   -4.7996   -2.7309   -1.3844
   -2.8451   -2.6902    0.1099
   -2.8088    1.5701    0.0306
   -3.5926    2.4888   -2.8425
   -4.8050    3.6819   -2.3281
   -3.5346    3.1629   -1.1992
   -1.0118   -1.4187    1.0673
    0.7153   -0.2686    2.0646
    0.2436    2.4495    2.8180
    1.1322    2.4494    1.2791
    2.0054    0.9830    3.8031
    2.6607    2.5394    3.2497
    2.5154   -1.1064    2.5868
    4.0349   -2.2808    1.0368
    5.6385    1.4726   -0.2596
    4.0994    2.6664    1.2483
    7.1082    0.3661   -1.0220
    7.6643   -1.2808   -1.3914
    8.0221   -2.7584    0.6270
    8.6388   -1.9631    2.0584
@<BUDE>CONF  6
   -8.1487   -1.6820   -3.2306
   -6.8468   -1.7013   -2.4658
   -6.3330   -2.7737   -2.1516
   -6.2554   -0.5579   -2.1316
   -5.0355   -0.5760   -1.4149
   -4.4147   -1.7790   -1.0492
   -3.2735   -1.7620   -0.2385
   -2.6746   -0.5448    0.1073
   -3.2851    0.6530   -0.2831
   -4.4375    0.6441   -1.0778
   -5.0348    1.7861   -1.5424
   -4.1910    2.8435   -2.0059
   -1.4492   -0.5441    0.8148
   -0.8729    0.6075    1.1474
   -1.4143    1.6900    0.8349
    0.2789    0.6066    1.8125
    0.9157    1.8794    2.1802
    2.2164    1.5987    2.9312
    3.1757    0.8709    2.0201
    3.1798   -0.5279    1.9622
    4.0436   -1.2022    1.0908
    4.9320   -0.4825    0.2889
    4.9484    0.9158    0.3569
    4.0710    1.5873    1.2168
    5.7792   -1.1452   -0.5595
    7.1213   -0.6656   -0.6770
    7.8004   -0.7383    0.6697
    7.9979    0.2902    1.3147
    8.1847   -1.9145    1.1576
   -8.4239   -0.6527   -3.4509
   -8.0301   -2.2334   -4.1611
   -8.9282   -2.1460   -2.6302
   -6.6764    0.3233   -2.3890
   -4.7996   -2.7309   -1.3844
   -2.8451   -2.6902    0.1099
   -2.8088    1.5701    0.0306
   -3.5926    2.4888   -2.8425
   -4.8050    3.6819   -2.3281
   -3.5346    3.1629   -1.1992
   -1.0118   -1.4187    1.0673
    0.7153   -0.2686    2.0646
    0.2436    2.4495    2.8180
    1.1322    2.4494    1.2791
    2.0054    0.9830    3.8031
    2.6607    2.5394    3.2497
    2.5154   -1.1064    2.5868
    4.0349   -2.2808    1.0368
    5.6385    1.4726   -0.2596
    4.0994    2.6664    1.2483
    7.1082    0.3661   -1.0220
    7.6643   -1.2808   -1.3914
    8.6390   -1.9631    2.0583
    8.0222   -2.7584    0.6270
@<BUDE>CONF  7
   -7.5438   -2.1598   -2.0922
   -6.2419   -2.1791   -1.3274
   -5.7281   -3.2515   -1.0132
   -5.6505   -1.0357   -0.9932
   -4.4306   -1.0538   -0.2765
   -3.8098   -2.2568    0.0892
   -2.6686   -2.2398    0.8999
   -2.0697   -1.0226    1.2457
   -2.6802    0.1752    0.8553
   -3.8326    0.1663    0.0606
   -4.4299    1.3083   -0.4040
   -3.5861    2.3657   -0.8675
   -0.8443   -1.0219    1.9532
   -0.2680    0.1297    2.2858
   -0.8094    1.2122    1.9733
    0.8838    0.1288    2.9509
    1.5206    1.4016    3.3186
    1.8924    2.1690    2.0506
    2.9088    1.3767    1.2637
    4.2790    1.5514    1.4918
    5.2209    0.7908    0.7884
    4.8001   -0.1327   -0.1709
    3.4323   -0.2977   -0.4195
    2.4927    0.4522    0.2982
    5.7242   -0.8722   -0.8608
    5.5035   -1.0879   -2.2571
    5.4722    0.2417   -2.9721
    4.4016    0.7042   -3.3631
    6.6023    0.9119   -3.1786
   -7.8190   -1.1305   -2.3125
   -7.4252   -2.7112   -3.0227
   -8.3233   -2.6238   -1.4918
   -6.0715   -0.1545   -1.2506
   -4.1947   -3.2087   -0.2460
   -2.2402   -3.1680    1.2483
   -2.2039    1.0923    1.1690
   -2.9877    2.0110   -1.7041
   -4.2001    3.2041   -1.1897
   -2.9297    2.6851   -0.0608
   -0.4069   -1.8965    2.2057
    1.3202   -0.7464    3.2030
    2.4189    1.2025    3.8993
    0.8282    1.9947    3.9123
    2.3152    3.1339    2.3224
    1.0015    2.3203    1.4448
    4.6288    2.2733    2.2148
    6.2769    0.9166    0.9764
    3.1066   -1.0084   -1.1646
    1.4431    0.3039    0.0917
    4.5535   -1.5990   -2.3988
    6.3084   -1.6986   -2.6607
    6.5814    1.8013   -3.6569
    7.4808    0.5311   -2.8573
@<BUDE>CONF  8
   -7.7307   -3.8776   -4.5875
   -6.4288   -3.8969   -3.8227
   -5.9150   -4.9693   -3.5085
   -5.8374   -2.7535   -3.4885
   -4.6175   -2.7716   -2.7718
   -3.9967   -3.9746   -2.4061
   -2.8555   -3.9576   -1.5954
   -2.2566   -2.7404   -1.2496
   -2.8671   -1.5426   -1.6400
   -4.0195   -1.5515   -2.4347
   -4.6168   -0.4095   -2.8993
   -3.7730    0.6479   -3.3628
   -1.0312   -2.7397   -0.5421
   -0.4549   -1.5881   -0.2095
   -0.9963   -0.5056   -0.5220
    0.6969   -1.5890    0.4556
    1.3337   -0.3162    0.8233
    2.6344   -0.5969    1.5743
    3.2887    0.7106    1.9520
    4.1959    1.3295    1.0837
    4.7749    2.5598    1.4172
    4.4721    3.1690    2.6368
    3.5820    2.5457    3.5195
    2.9916    1.3239    3.1750
    5.0437    4.3707    2.9623
    5.4772    4.5637    4.3113
    6.0730    5.9438    4.4550
    5.4446    6.8270    5.0364
    7.2768    6.2035    3.9528
   -8.0059   -2.8483   -4.8078
   -7.6121   -4.4290   -5.5180
   -8.5102   -4.3416   -3.9871
   -6.2584   -1.8723   -3.7459
   -4.3816   -4.9265   -2.7413
   -2.4271   -4.8858   -1.2470
   -2.3908   -0.6255   -1.3263
   -3.1746    0.2932   -4.1994
   -4.3870    1.4863   -3.6850
   -3.1166    0.9673   -2.5561
   -0.5938   -3.6143   -0.2896
    1.1333   -2.4642    0.7077
    0.6616    0.2539    1.4611
    1.5502    0.2538   -0.0778
    3.3053   -1.1677    0.9357
    2.4167   -1.1675    2.4746
    4.4602    0.8680    0.1438
    5.4633    3.0428    0.7395
    3.3512    3.0141    4.4648
    2.3047    0.8648    3.8705
    6.2275    3.8164    4.5609
    4.6270    4.4634    4.9827
    7.6753    7.1266    4.0489
    7.7918    5.4776    3.4754
@<BUDE>CONF  9
   -7.7695   -0.1818   -4.5900
   -6.4676   -0.2011   -3.8252
   -5.9538   -1.2735   -3.5110
   -5.8762    0.9423   -3.4910
   -4.6563    0.9242   -2.7743
   -4.0355   -0.2788   -2.4086
   -2.8943   -0.2618   -1.5979
   -2.2954    0.9554   -1.2521
   -2.9059    2.1532   -1.6425
   -4.0583    2.1443   -2.4372
   -4.6556    3.2863   -2.9018
   -4.7427    4.4056   -2.0160
   -1.0700    0.9561   -0.5446
   -0.4937    2.1077   -0.2120
   -1.0351    3.1902   -0.5245
    0.6581    2.1068    0.4531
    1.2933    0.8330    0.8200
    2.5943    1.1115    1.5713
    3.2469   -0.1971    1.9482
    2.9477   -0.8164    3.1676
    3.5244   -2.0477    3.5015
    4.4286   -2.6574    2.6291
    4.7488   -2.0336    1.4173
    4.1568   -0.8108    1.0791
    4.9948   -3.8600    2.9606
    6.3796   -4.0545    2.6615
    7.2029   -3.0304    3.4053
    7.6980   -2.0817    2.7988
    7.3923   -3.1547    4.7159
   -8.0447    0.8475   -4.8103
   -7.6509   -0.7332   -5.5205
   -8.5490   -0.6458   -3.9896
   -6.2972    1.8235   -3.7484
   -4.4204   -1.2307   -2.7438
   -2.4659   -1.1900   -1.2495
   -2.4296    3.0703   -1.3288
   -3.7411    4.7188   -1.7288
   -5.2500    5.2264   -2.5187
   -5.3033    4.1217   -1.1279
   -0.6326    0.0815   -0.2921
    1.0956    2.9813    0.7058
    1.5090    0.2632   -0.0814
    0.6204    0.2633    1.4576
    2.3773    1.6819    2.4719
    3.2659    1.6818    0.9330
    2.2663   -0.3546    3.8666
    3.2810   -2.5310    4.4361
    5.4516   -2.5024    0.7445
    4.4164   -0.3514    0.1368
    6.5383   -3.9404    1.5912
    6.6793   -5.0543    2.9687
    6.9852   -3.9340    5.2130
    7.9428   -2.4696    5.2135
@<BUDE>CONF  10
   -7.7695   -0.1818   -4.5900
   -6.4676   -0.2011   -3.8252
   -5.9538   -1.2735   -3.5110
   -5.8762    0.9423   -3.4910
   -4.6563    0.9242   -2.7743
   -4.0355   -0.2788   -2.4086
   -2.8943   -0.2618   -1.5979
   -2.2954    0.9554   -1.2521
   -2.9059    2.1532   -1.6425
   -4.0583    2.1443   -2.4372
   -4.6556    3.2863   -2.9018
   -4.7427    4.4056   -2.0160
   -1.0700    0.9561   -0.5446
   -0.4937    2.1077   -0.2120
   -1.0351    3.1902   -0.5245
    0.6581    2.1068    0.4531
    1.2933    0.8330    0.8200
    2.5943    1.1115    1.5713
    3.2469   -0.1971    1.9482
    2.9477   -0.8164    3.1676
    3.5244   -2.0477    3.5015
    4.4286   -2.6574    2.6291
    4.7488   -2.0336    1.4173
    4.1568   -0.8108    1.0791
    4.9948   -3.8600    2.9606
    6.3796   -4.0545    2.6615
    7.2029   -3.0304    3.4053
    7.6980   -2.0817    2.7988
    7.3923   -3.1547    4.7159
   -8.0447    0.8475   -4.8103
   -7.6509   -0.7332   -5.5205
   -8.5490   -0.6458   -3.9896
   -6.2972    1.8235   -3.7484
   -4.4204   -1.2307   -2.7438
   -2.4659   -1.1900   -1.2495
   -2.4296    3.0703   -1.3288
   -3.7411    4.7188   -1.7288
   -5.2500    5.2264   -2.5187
   -5.3033    4.1217   -1.1279
   -0.6326    0.0815   -0.2921
    1.0956    2.9813    0.7058
    1.5090    0.2632   -0.0814
    0.6204    0.2633    1.4576
    2.3773    1.6819    2.4719
    3.2659    1.6818    0.9330
    2.2663   -0.3546    3.8666
    3.2810   -2.5310    4.4361
    5.4516   -2.5024    0.7445
    4.4164   -0.3514    0.1368
    6.5383   -3.9404    1.5912
    6.6793   -5.0543    2.9687
    7.9430   -2.4696    5.2135
    6.9854   -3.9341    5.2129
@<BUDE>CONF  11
   -7.3127   -4.2513   -3.2903
   -6.0108   -4.2706   -2.5255
   -5.4970   -5.3430   -2.2113
   -5.4194   -3.1272   -2.1913
   -4.1995   -3.1453   -1.4746
   -3.5787   -4.3483   -1.1089
   -2.4375   -4.3313   -0.2982
   -1.8386   -3.1141    0.0476
   -2.4491   -1.9163   -0.3428
   -3.6015   -1.9252   -1.1375
   -4.1988   -0.7832   -1.6021
   -3.3550    0.2742   -2.0656
   -0.6132   -3.1134    0.7551
   -0.0369   -1.9618    1.0877
   -0.5783   -0.8793    0.7752
    1.1149   -1.9627    1.7528
    1.7517   -0.6899    2.1205
    2.1235    0.0775    0.8525
    2.7777    1.3849    1.2302
    2.0064    2.5374    1.4222
    2.6083    3.7412    1.8080
    3.9928    3.8093    1.9781
    4.7729    2.6661    1.7673
    4.1655    1.4597    1.3985
    4.5794    4.9897    2.3513
    5.8165    5.3495    1.7308
    5.6110    5.4831    0.2408
    6.0348    4.6131   -0.5185
    4.9718    6.5413   -0.2497
   -7.5879   -3.2220   -3.5106
   -7.1941   -4.8027   -4.2208
   -8.0922   -4.7153   -2.6899
   -5.8404   -2.2460   -2.4487
   -3.9636   -5.3002   -1.4441
   -2.0091   -5.2595    0.0502
   -1.9728   -0.9992   -0.0291
   -2.7566   -0.0805   -2.9022
   -3.9690    1.1126   -2.3878
   -2.6986    0.5936   -1.2589
   -0.1758   -3.9880    1.0076
    1.5513   -2.8379    2.0049
    2.6500   -0.8890    2.7012
    1.0593   -0.0968    2.7142
    1.2246    0.2752    0.2724
    2.8152   -0.5169    0.2594
    0.9365    2.5138    1.2777
    2.0099    4.6255    1.9699
    5.8441    2.7194    1.8942
    4.7880    0.5905    1.2459
    6.5580    4.5781    1.9275
    6.1625    6.2980    2.1362
    4.6242    7.2550    0.3747
    4.8342    6.6305   -1.2463
@<BUDE>CONF  12
   -7.3127   -4.2513   -3.2903
   -6.0108   -4.2706   -2.5255
   -5.4970   -5.3430   -2.2113
   -5.4194   -3.1272   -2.1913
   -4.1995   -3.1453   -1.4746
   -3.5787   -4.3483   -1.1089
   -2.4375   -4.3313   -0.2982
   -1.8386   -3.1141    0.0476
   -2.4491   -1.9163   -0.3428
   -3.6015   -1.9252   -1.1375
   -4.1988   -0.7832   -1.6021
   -3.3550    0.2742   -2.0656
   -0.6132   -3.1134    0.7551
   -0.0369   -1.9618    1.0877
   -0.5783   -0.8793    0.7752
    1.1149   -1.9627    1.7528
    1.7517   -0.6899    2.1205
    2.1235    0.0775    0.8525
    2.7777    1.3849    1.2302
    2.0064    2.5374    1.4222
    2.6083    3.7412    1.8080
    3.9928    3.8093    1.9781
    4.7729    2.6661    1.7673
    4.1655    1.4597    1.3985
    4.5794    4.9897    2.3513
    5.8165    5.3495    1.7308
    5.6110    5.4831    0.2408
    6.0348    4.6131   -0.5185
    4.9718    6.5413   -0.2497
   -7.5879   -3.2220   -3.5106
   -7.1941   -4.8027   -4.2208
   -8.0922   -4.7153   -2.6899
   -5.8404   -2.2460   -2.4487
   -3.9636   -5.3002   -1.4441
   -2.0091   -5.2595    0.0502
   -1.9728   -0.9992   -0.0291
   -2.7566   -0.0805   -2.9022
   -3.9690    1.1126   -2.3878
   -2.6986    0.5936   -1.2589
   -0.1758   -3.9880    1.0076
    1.5513   -2.8379    2.0049
    2.6500   -0.8890    2.7012
    1.0593   -0.0968    2.7142
    1.2246    0.2752    0.2724
    2.8152   -0.5169    0.2594
    0.9365    2.5138    1.2777
    2.0099    4.6255    1.9699
    5.8441    2.7194    1.8942
    4.7880    0.5905    1.2459
    6.5580    4.5781    1.9275
    6.1625    6.2980    2.1362
    4.8343    6.6306   -1.2463
    4.6243    7.2551    0.3747
@<BUDE>CONF  13
   -8.0908   -2.2724   -3.2801
   -6.7889   -2.2917   -2.5153
   -6.2751   -3.3641   -2.2011
   -6.1975   -1.1483   -2.1811
   -4.9776   -1.1664   -1.4644
   -4.3568   -2.3694   -1.0987
   -3.2156   -2.3524   -0.2880
   -2.6167   -1.1352    0.0578
   -3.2272    0.0626   -0.3326
   -4.3796    0.0537   -1.1273
   -4.9769    1.1957   -1.5919
   -4.1331    2.2531   -2.0554
   -1.3913   -1.1345    0.7653
   -0.8150    0.0171    1.0979
   -1.3564    1.0996    0.7854
    0.3368    0.0162    1.7630
    0.9720   -1.2576    2.1299
    2.2730   -0.9791    2.8812
    3.2333   -0.2520    1.9705
    4.1255   -0.9656    1.1613
    4.9907   -0.2931    0.2899
    4.9902    1.1026    0.2409
    4.1156    1.8235    1.0625
    3.2397    1.1471    1.9201
    5.8411    1.7580   -0.6095
    6.4830    2.9440   -0.1337
    7.3332    2.6075    1.0679
    6.9612    2.9324    2.1944
    8.4839    1.9601    0.9076
   -8.3660   -1.2431   -3.5004
   -7.9722   -2.8238   -4.2106
   -8.8703   -2.7364   -2.6797
   -6.6185   -0.2671   -2.4385
   -4.7417   -3.3213   -1.4339
   -2.7872   -3.2806    0.0604
   -2.7509    0.9797   -0.0189
   -3.5347    1.8984   -2.8920
   -4.7471    3.0915   -2.3776
   -3.4767    2.5725   -1.2487
   -0.9539   -2.0091    1.0178
    0.7743    0.8907    2.0157
    1.1877   -1.8274    1.2285
    0.2991   -1.8273    2.7675
    2.7161   -1.9205    3.1991
    2.0628   -0.3637    3.7533
    4.1575   -2.0445    1.1961
    5.6680   -0.8459   -0.3442
    4.1181    2.9030    1.0284
    2.5713    1.7251    2.5409
    5.7288    3.6756    0.1483
    7.1122    3.3554   -0.9202
    8.7884    1.6938   -0.0179
    9.0525    1.7349    1.7113
@<BUDE>CONF  14
   -8.0908   -2.2724   -3.2801
   -6.7889   -2.2917   -2.5153
   -6.2751   -3.3641   -2.2011
   -6.1975   -1.1483   -2.1811
   -4.9776   -1.1664   -1.4644
   -4.3568   -2.3694   -1.0987
   -3.2156   -2.3524   -0.2880
   -2.6167   -1.1352    0.0578
   -3.2272    0.0626   -0.3326
   -4.3796    0.0537   -1.1273
   -4.9769    1.1957   -1.5919
   -4.1331    2.2531   -2.0554
   -1.3913   -1.1345    0.7653
   -0.8150    0.0171    1.0979
   -1.3564    1.0996    0.7854
    0.3368    0.0162    1.7630
    0.9720   -1.2576    2.1299
    2.2730   -0.9791    2.8812
    3.2333   -0.2520    1.9705
    4.1255   -0.9656    1.1613
    4.9907   -0.2931    0.2899
    4.9902    1.1026    0.2409
    4.1156    1.8235    1.0625
    3.2397    1.1471    1.9201
    5.8411    1.7580   -0.6095
    6.4830    2.9440   -0.1337
    7.3332    2.6075    1.0679
    6.9612    2.9324    2.1944
    8.4839    1.9601    0.9076
   -8.3660   -1.2431   -3.5004
   -7.9722   -2.8238   -4.2106
   -8.8703   -2.7364   -2.6797
   -6.6185   -0.2671   -2.4385
   -4.7417   -3.3213   -1.4339
   -2.7872   -3.2806    0.0604
   -2.7509    0.9797   -0.0189
   -3.5347    1.8984   -2.8920
   -4.7471    3.0915   -2.3776
   -3.4767    2.5725   -1.2487
   -0.9539   -2.0091    1.0178
    0.7743    0.8907    2.0157
    1.1877   -1.8274    1.2285
    0.2991   -1.8273    2.7675
    2.7161   -1.9205    3.1991
    2.0628   -0.3637    3.7533
    4.1575   -2.0445    1.1961
    5.6680   -0.8459   -0.3442
    4.1181    2.9030    1.0284
    2.5713    1.7251    2.5409
    5.7288    3.6756    0.1483
    7.1122    3.3554   -0.9202
    9.0526    1.7350    1.7113
    8.7885    1.6939   -0.0179
@<BUDE>CONF  15
   -6.5705   -2.2181   -5.7242
   -5.2686   -2.2374   -4.9594
   -4.7548   -3.3098   -4.6452
   -4.6772   -1.0940   -4.6252
   -3.4573   -1.1121   -3.9085
   -2.8365   -2.3151   -3.5428
   -1.6953   -2.2981   -2.7321
   -1.0964   -1.0809   -2.3863
   -1.7069    0.1169   -2.7767
   -2.8593    0.1080   -3.5714
   -3.4566    1.2500   -4.0360
   -3.5437    2.3693   -3.1502
    0.1290   -1.0802   -1.6788
    0.7053    0.0714   -1.3462
    0.1639    1.1539   -1.6587
    1.8571    0.0705   -0.6811
    2.4923   -1.2033   -0.3142
    3.7933   -0.9248    0.4371
    3.4847   -0.1975    1.7239
    3.4383    1.2013    1.7573
    3.1162    1.8752    2.9416
    2.8649    1.1550    4.1113
    2.9303   -0.2434    4.0905
    3.2356   -0.9144    2.9003
    2.5544    1.8172    5.2697
    3.1230    1.3361    6.4904
    2.6567    2.2010    7.6370
    1.8109    1.7763    8.4227
    3.1609    3.4214    7.7967
   -6.8457   -1.1888   -5.9445
   -6.4519   -2.7695   -6.6547
   -7.3500   -2.6821   -5.1238
   -5.0982   -0.2128   -4.8826
   -3.2214   -3.2670   -3.8780
   -1.2669   -3.2263   -2.3837
   -1.2306    1.0340   -2.4630
   -2.5421    2.6825   -2.8630
   -4.0510    3.1901   -3.6529
   -4.1043    2.0854   -2.2621
    0.5664   -1.9548   -1.4263
    2.2946    0.9450   -0.4284
    2.7080   -1.7731   -1.2156
    1.8194   -1.7730    0.3234
    4.4437   -0.3094   -0.1811
    4.2901   -1.8662    0.6620
    3.6478    1.7802    0.8701
    3.0664    2.9538    2.9618
    2.7407   -0.8006    4.9960
    3.2758   -1.9936    2.9084
    4.2083    1.3748    6.4242
    2.8056    0.3090    6.6576
    2.8490    3.9998    8.5636
    3.8552    3.7690    7.1509
@<BUDE>CONF  16
   -6.5706   -2.2181   -5.7242
   -5.2687   -2.2374   -4.9594
   -4.7549   -3.3098   -4.6452
   -4.6773   -1.0940   -4.6252
   -3.4574   -1.1121   -3.9085
   -2.8366   -2.3151   -3.5428
   -1.6954   -2.2981   -2.7321
   -1.0965   -1.0809   -2.3863
   -1.7070    0.1169   -2.7767
   -2.8594    0.1080   -3.5714
   -3.4567    1.2500   -4.0360
   -3.5438    2.3693   -3.1502
    0.1289   -1.0802   -1.6788
    0.7052    0.0714   -1.3462
    0.1638    1.1539   -1.6587
    1.8570    0.0705   -0.6811
    2.4922   -1.2033   -0.3142
    3.7932   -0.9248    0.4371
    3.4846   -0.1975    1.7239
    3.4382    1.2013    1.7573
    3.1161    1.8752    2.9416
    2.8648    1.1550    4.1113
    2.9302   -0.2434    4.0905
    3.2355   -0.9144    2.9003
    2.5543    1.8172    5.2697
    3.1229    1.3361    6.4904
    2.6566    2.2010    7.6370
    1.8108    1.7763    8.4227
    3.1608    3.4214    7.7967
   -6.8458   -1.1888   -5.9445
   -6.4520   -2.7695   -6.6547
   -7.3501   -2.6821   -5.1238
   -5.0983   -0.2128   -4.8826
   -3.2215   -3.2670   -3.8780
   -1.2670   -3.2263   -2.3837
   -1.2307    1.0340   -2.4630
   -2.5422    2.6825   -2.8630
   -4.0511    3.1901   -3.6529
   -4.1044    2.0854   -2.2621
    0.5663   -1.9548   -1.4263
    2.2945    0.9450   -0.4284
    2.7079   -1.7731   -1.2156
    1.8193   -1.7730    0.3234
    4.4436   -0.3094   -0.1811
    4.2900   -1.8662    0.6620
    3.6477    1.7802    0.8701
    3.0663    2.9538    2.9618
    2.7406   -0.8006    4.9960
    3.2757   -1.9936    2.9084
    4.2082    1.3748    6.4242
    2.8055    0.3090    6.6576
    3.8553    3.7690    7.1510
    2.8490    3.9998    8.5637
@<BUDE>CONF  17
   -7.3797   -4.3695   -3.4925
   -6.0778   -4.3888   -2.7277
   -5.5640   -5.4612   -2.4135
   -5.4864   -3.2454   -2.3935
   -4.2665   -3.2635   -1.6768
   -3.6457   -4.4665   -1.3111
   -2.5045   -4.4495   -0.5004
   -1.9056   -3.2323   -0.1546
   -2.5161   -2.0345   -0.5450
   -3.6685   -2.0434   -1.3397
   -4.2658   -0.9014   -1.8043
   -3.4220    0.1560   -2.2678
   -0.6802   -3.2316    0.5529
   -0.1039   -2.0800    0.8855
   -0.6453   -0.9975    0.5730
    1.0479   -2.0809    1.5506
    1.6847   -0.8081    1.9183
    2.0565   -0.0407    0.6503
    2.7107    1.2667    1.0280
    1.9394    2.4192    1.2200
    2.5413    3.6230    1.6058
    3.9258    3.6911    1.7759
    4.7059    2.5479    1.5651
    4.0985    1.3415    1.1963
    4.5124    4.8715    2.1491
    5.7495    5.2313    1.5286
    6.2203    6.5566    2.0779
    7.1592    6.5943    2.8717
    5.6196    7.6826    1.7032
   -7.6549   -3.3402   -3.7128
   -7.2611   -4.9209   -4.4230
   -8.1592   -4.8335   -2.8921
   -5.9074   -2.3642   -2.6509
   -4.0306   -5.4184   -1.6463
   -2.0761   -5.3777   -0.1520
   -2.0398   -1.1174   -0.2313
   -2.8236   -0.1987   -3.1044
   -4.0360    0.9944   -2.5900
   -2.7656    0.4754   -1.4611
   -0.2428   -4.1062    0.8054
    1.4843   -2.9561    1.8027
    2.5830   -1.0072    2.4990
    0.9923   -0.2150    2.5120
    1.1576    0.1570    0.0702
    2.7482   -0.6351    0.0572
    0.8695    2.3956    1.0755
    1.9429    4.5073    1.7677
    5.7771    2.6012    1.6920
    4.7210    0.4723    1.0437
    5.6044    5.3146    0.4535
    6.4948    4.4664    1.7365
    5.9345    8.5691    2.0706
    4.8486    7.6505    1.0515
@<BUDE>CONF  18
   -7.3797   -4.3695   -3.4925
   -6.0778   -4.3888   -2.7277
   -5.5640   -5.4612   -2.4135
   -5.4864   -3.2454   -2.3935
   -4.2665   -3.2635   -1.6768
   -3.6457   -4.4665   -1.3111
   -2.5045   -4.4495   -0.5004
   -1.9056   -3.2323   -0.1546
   -2.5161   -2.0345   -0.5450
   -3.6685   -2.0434   -1.3397
   -4.2658   -0.9014   -1.8043
   -3.4220    0.1560   -2.2678
   -0.6802   -3.2316    0.5529
   -0.1039   -2.0800    0.8855
   -0.6453   -0.9975    0.5730
    1.0479   -2.0809    1.5506
    1.6847   -0.8081    1.9183
    2.0565   -0.0407    0.6503
    2.7107    1.2667    1.0280
    1.9394    2.4192    1.2200
    2.5413    3.6230    1.6058
    3.9258    3.6911    1.7759
    4.7059    2.5479    1.5651
    4.0985    1.3415    1.1963
    4.5124    4.8715    2.1491
    5.7495    5.2313    1.5286
    6.2203    6.5566    2.0779
    7.1592    6.5943    2.8717
    5.6196    7.6826    1.7032
   -7.6549   -3.3402   -3.7128
   -7.2611   -4.9209   -4.4230
   -8.1592   -4.8335   -2.8921
   -5.9074   -2.3642   -2.6509
   -4.0306   -5.4184   -1.6463
   -2.0761   -5.3777   -0.1520
   -2.0398   -1.1174   -0.2313
   -2.8236   -0.1987   -3.1044
   -4.0360    0.9944   -2.5900
   -2.7656    0.4754   -1.4611
   -0.2428   -4.1062    0.8054
    1.4843   -2.9561    1.8027
    2.5830   -1.0072    2.4990
    0.9923   -0.2150    2.5120
    1.1576    0.1570    0.0702
    2.7482   -0.6351    0.0572
    0.8695    2.3956    1.0755
    1.9429    4.5073    1.7677
    5.7771    2.6012    1.6920
    4.7210    0.4723    1.0437
    5.6044    5.3146    0.4535
    6.4948    4.4664    1.7365
    4.8487    7.6505    1.0514
    5.9346    8.5691    2.0705
@<BUDE>CONF  19
   -7.6821    0.5998   -2.0689
   -6.3689    0.6206   -1.3238
   -5.8408    1.6937   -1.0365
   -5.7828   -0.5221   -0.9781
   -4.5523   -0.5026   -0.2800
   -3.9261    0.7011    0.0742
   -2.6534    0.6854    0.6572
   -2.0535   -0.5312    1.0035
   -2.6959   -1.7296    0.6706
   -3.9603   -1.7221    0.0699
   -4.6603   -2.8649   -0.2146
   -4.6390   -3.9217    0.7484
   -0.8281   -0.5305    1.7110
   -0.2518    0.6211    2.0436
   -0.7932    1.7036    1.7311
    0.9000    0.6202    2.7087
    1.5368    1.8930    3.0764
    1.9086    2.6604    1.8084
    2.9250    1.8681    1.0215
    4.2952    2.0428    1.2496
    5.2371    1.2822    0.5462
    4.8163    0.3587   -0.4131
    3.4485    0.1937   -0.6617
    2.5089    0.9436    0.0560
    5.7404   -0.3808   -1.1030
    5.5197   -0.5965   -2.4993
    6.6464   -1.4286   -3.0634
    6.4576   -2.6123   -3.3395
    7.8422   -0.8811   -3.2614
   -8.0096   -0.4298   -2.1966
   -8.4291    1.1509   -1.5013
   -7.5523    1.0635   -3.0444
   -6.2155   -1.4037   -1.2136
   -4.4096    1.6524   -0.0920
   -2.1383    1.6141    0.8535
   -2.1853   -2.6462    0.9266
   -5.0646   -3.5669    1.6848
   -5.2243   -4.7608    0.3782
   -3.6119   -4.2402    0.9137
   -0.3907   -1.4051    1.9635
    1.3364   -0.2550    2.9608
    2.4351    1.6939    3.6571
    0.8444    2.4861    3.6701
    2.3314    3.6253    2.0802
    1.0177    2.8117    1.2026
    4.6450    2.7647    1.9726
    6.2931    1.4080    0.7342
    3.1228   -0.5170   -1.4068
    1.4593    0.7953   -0.1505
    5.4839    0.3621   -3.0125
    4.5761   -1.1195   -2.6402
    8.5959   -1.4377   -3.6387
    7.9961    0.0909   -3.0342
@<BUDE>CONF  20
   -7.6821    0.5998   -2.0689
   -6.3689    0.6206   -1.3238
   -5.8408    1.6937   -1.0365
   -5.7828   -0.5221   -0.9781
   -4.5523   -0.5026   -0.2800
   -3.9261    0.7011    0.0742
   -2.6534    0.6854    0.6572
   -2.0535   -0.5312    1.0035
   -2.6959   -1.7296    0.6706
   -3.9603   -1.7221    0.0699
   -4.6603   -2.8649   -0.2146
   -4.6390   -3.9217    0.7484
   -0.8281   -0.5305    1.7110
   -0.2518    0.6211    2.0436
   -0.7932    1.7036    1.7311
    0.9000    0.6202    2.7087
    1.5368    1.8930    3.0764
    1.9086    2.6604    1.8084
    2.9250    1.8681    1.0215
    4.2952    2.0428    1.2496
    5.2371    1.2822    0.5462
    4.8163    0.3587   -0.4131
    3.4485    0.1937   -0.6617
    2.5089    0.9436    0.0560
    5.7404   -0.3808   -1.1030
    5.5197   -0.5965   -2.4993
    6.6464   -1.4286   -3.0634
    6.4576   -2.6123   -3.3395
    7.8422   -0.8811   -3.2614
   -8.0096   -0.4298   -2.1966
   -8.4291    1.1509   -1.5013
   -7.5523    1.0635   -3.0444
   -6.2155   -1.4037   -1.2136
   -4.4096    1.6524   -0.0920
   -2.1383    1.6141    0.8535
   -2.1853   -2.6462    0.9266
   -5.0646   -3.5669    1.6848
   -5.2243   -4.7608    0.3782
   -3.6119   -4.2402    0.9137
   -0.3907   -1.4051    1.9635
    1.3364   -0.2550    2.9608
    2.4351    1.6939    3.6571
    0.8444    2.4861    3.6701
    2.3314    3.6253    2.0802
    1.0177    2.8117    1.2026
    4.6450    2.7647    1.9726
    6.2931    1.4080    0.7342
    3.1228   -0.5170   -1.4068
    1.4593    0.7953   -0.1505
    5.4839    0.3621   -3.0125
    4.5761   -1.1195   -2.6402
    7.9961    0.0909   -3.0344
    8.5958   -1.4376   -3.6389
@<BUDE>CONF  21
   -7.7996   -1.0938   -4.5687
   -6.4864   -1.0730   -3.8236
   -5.9583    0.0001   -3.5363
   -5.9003   -2.2157   -3.4779
   -4.6698   -2.1962   -2.7798
   -4.0436   -0.9925   -2.4256
   -2.7709   -1.0082   -1.8426
   -2.1710   -2.2248   -1.4963
   -2.8134   -3.4232   -1.8292
   -4.0778   -3.4157   -2.4299
   -4.7778   -4.5585   -2.7144
   -4.7565   -5.6153   -1.7514
   -0.9456   -2.2241   -0.7888
   -0.3693   -1.0725   -0.4562
   -0.9107    0.0100   -0.7687
    0.7825   -1.0734    0.2089
    1.4193    0.1994    0.5766
    2.7200   -0.0813    1.3276
    3.3743    1.2262    1.7053
    4.2815    1.8451    0.8370
    4.8605    3.0754    1.1705
    4.5577    3.6846    2.3901
    3.6676    3.0613    3.2728
    3.0772    1.8395    2.9283
    5.1293    4.8863    2.7156
    5.5628    5.0793    4.0646
    6.6174    4.0537    4.4051
    6.3384    3.1048    5.1364
    7.8473    4.1768    3.9140
   -8.1271   -2.1234   -4.6964
   -8.5466   -0.5427   -4.0011
   -7.6698   -0.6301   -5.5442
   -6.3330   -3.0973   -3.7134
   -4.5271   -0.0412   -2.5918
   -2.2558   -0.0795   -1.6463
   -2.3028   -4.3398   -1.5732
   -5.1821   -5.2605   -0.8150
   -5.3418   -6.4544   -2.1216
   -3.7294   -5.9338   -1.5861
   -0.5082   -3.0987   -0.5363
    1.2189   -1.9486    0.4610
    0.7472    0.7695    1.2144
    1.6358    0.7694   -0.3245
    3.3909   -0.6521    0.6890
    2.5023   -0.6519    2.2279
    4.5458    1.3836   -0.1029
    5.5489    3.5584    0.4928
    3.4368    3.5297    4.2181
    2.3903    1.3804    3.6238
    4.7151    4.9658    4.7370
    5.9800    6.0785    4.1713
    8.0752    4.9563    3.3136
    8.5526    3.4907    4.1416
@<BUDE>CONF  22
   -7.7996   -1.0939   -4.5687
   -6.4864   -1.0731   -3.8236
   -5.9583    0.0000   -3.5363
   -5.9003   -2.2158   -3.4779
   -4.6698   -2.1963   -2.7798
   -4.0436   -0.9926   -2.4256
   -2.7709   -1.0083   -1.8426
   -2.1710   -2.2249   -1.4963
   -2.8134   -3.4233   -1.8292
   -4.0778   -3.4158   -2.4299
   -4.7778   -4.5586   -2.7144
   -4.7565   -5.6154   -1.7514
   -0.9456   -2.2242   -0.7888
   -0.3693   -1.0726   -0.4562
   -0.9107    0.0099   -0.7687
    0.7825   -1.0735    0.2089
    1.4193    0.1993    0.5766
    2.7200   -0.0814    1.3276
    3.3743    1.2261    1.7053
    4.2815    1.8450    0.8370
    4.8605    3.0753    1.1705
    4.5577    3.6845    2.3901
    3.6676    3.0612    3.2728
    3.0772    1.8394    2.9283
    5.1293    4.8862    2.7156
    5.5628    5.0792    4.0646
    6.6174    4.0536    4.4051
    6.3384    3.1047    5.1364
    7.8473    4.1767    3.9140
   -8.1271   -2.1235   -4.6964
   -8.5466   -0.5428   -4.0011
   -7.6698   -0.6302   -5.5442
   -6.3330   -3.0974   -3.7134
   -4.5271   -0.0413   -2.5918
   -2.2558   -0.0796   -1.6463
   -2.3028   -4.3399   -1.5732
   -5.1821   -5.2606   -0.8150
   -5.3418   -6.4545   -2.1216
   -3.7294   -5.9339   -1.5861
   -0.5082   -3.0988   -0.5363
    1.2189   -1.9487    0.4610
    0.7472    0.7694    1.2144
    1.6358    0.7693   -0.3245
    3.3909   -0.6522    0.6890
    2.5023   -0.6520    2.2279
    4.5458    1.3835   -0.1029
    5.5489    3.5583    0.4928
    3.4368    3.5296    4.2181
    2.3903    1.3803    3.6238
    4.7151    4.9657    4.7370
    5.9800    6.0784    4.1713
    8.5526    3.4907    4.1418
    8.0753    4.9563    3.3137
@<BUDE>CONF  23
   -5.6444    0.2737   -5.5304
   -4.3312    0.2945   -4.7853
   -3.8031    1.3676   -4.4980
   -3.7451   -0.8482   -4.4396
   -2.5146   -0.8287   -3.7415
   -1.8884    0.3750   -3.3873
   -0.6157    0.3593   -2.8043
   -0.0158   -0.8573   -2.4580
   -0.6582   -2.0557   -2.7909
   -1.9226   -2.0482   -3.3916
   -2.6226   -3.1910   -3.6761
   -2.6013   -4.2478   -2.7131
    1.2096   -0.8566   -1.7505
    1.7859    0.2950   -1.4179
    1.2445    1.3775   -1.7304
    2.9377    0.2941   -0.7528
    3.5745    1.5669   -0.3851
    2.6382    2.3594    0.5259
    2.4136    1.5910    1.8062
    1.3608    0.6741    1.9107
    1.1742   -0.0654    3.0848
    2.0238    0.1268    4.1763
    3.0659    1.0573    4.0866
    3.2600    1.7824    2.9048
    1.8359   -0.5950    5.3254
    1.9974    0.0803    6.5756
    0.9988    1.2089    6.6697
    1.3730    2.3733    6.5383
   -0.2850    0.9434    6.8945
   -5.9719   -0.7559   -5.6581
   -6.3914    0.8248   -4.9628
   -5.5146    0.7374   -6.5059
   -4.1778   -1.7298   -4.6751
   -2.3719    1.3263   -3.5535
   -0.1006    1.2880   -2.6080
   -0.1476   -2.9723   -2.5349
   -3.0269   -3.8930   -1.7767
   -3.1866   -5.0869   -3.0833
   -1.5742   -4.5663   -2.5478
    1.6470   -1.7312   -1.4980
    3.3741   -0.5811   -0.5007
    3.7790    2.1427   -1.2853
    4.5074    1.3671    0.1380
    1.6862    2.5119    0.0219
    3.0866    3.3238    0.7549
    0.6793    0.5225    1.0867
    0.3703   -0.7829    3.1581
    3.7203    1.2097    4.9321
    4.0735    2.4912    2.8583
    3.0065    0.4815    6.6426
    1.8305   -0.6213    7.3902
   -0.5912   -0.0130    7.0021
   -0.9530    1.6984    6.9572
@<BUDE>CONF  24
   -5.6444    0.2737   -5.5304
   -4.3312    0.2945   -4.7853
   -3.8031    1.3676   -4.4980
   -3.7451   -0.8482   -4.4396
   -2.5146   -0.8287   -3.7415
   -1.8884    0.3750   -3.3873
   -0.6157    0.3593   -2.8043
   -0.0158   -0.8573   -2.4580
   -0.6582   -2.0557   -2.7909
   -1.9226   -2.0482   -3.3916
   -2.6226   -3.1910   -3.6761
   -2.6013   -4.2478   -2.7131
    1.2096   -0.8566   -1.7505
    1.7859    0.2950   -1.4179
    1.2445    1.3775   -1.7304
    2.9377    0.2941   -0.7528
    3.5745    1.5669   -0.3851
    2.6382    2.3594    0.5259
    2.4136    1.5910    1.8062
    1.3608    0.6741    1.9107
    1.1742   -0.0654    3.0848
    2.0238    0.1268    4.1763
    3.0659    1.0573    4.0866
    3.2600    1.7824    2.9048
    1.8359   -0.5950    5.3254
    1.9974    0.0803    6.5756
    0.9988    1.2089    6.6697
    1.3730    2.3733    6.5383
   -0.2850    0.9434    6.8945
   -5.9719   -0.7559   -5.6581
   -6.3914    0.8248   -4.9628
   -5.5146    0.7374   -6.5059
   -4.1778   -1.7298   -4.6751
   -2.3719    1.3263   -3.5535
   -0.1006    1.2880   -2.6080
   -0.1476   -2.9723   -2.5349
   -3.0269   -3.8930   -1.7767
   -3.1866   -5.0869   -3.0833
   -1.5742   -4.5663   -2.5478
    1.6470   -1.7312   -1.4980
    3.3741   -0.5811   -0.5007
    3.7790    2.1427   -1.2853
    4.5074    1.3671    0.1380
    1.6862    2.5119    0.0219
    3.0866    3.3238    0.7549
    0.6793    0.5225    1.0867
    0.3703   -0.7829    3.1581
    3.7203    1.2097    4.9321
    4.0735    2.4912    2.8583
    3.0065    0.4815    6.6426
    1.8305   -0.6213    7.3902
   -0.9530    1.6984    6.9574
   -0.5911   -0.0130    7.0023
@<BUDE>CONF  25
   -5.7186    0.4817   -5.6331
   -4.4054    0.5025   -4.8880
   -3.8773    1.5756   -4.6007
   -3.8193   -0.6402   -4.5423
   -2.5888   -0.6207   -3.8442
   -1.9626    0.5830   -3.4900
   -0.6899    0.5673   -2.9070
   -0.0900   -0.6493   -2.5607
   -0.7324   -1.8477   -2.8936
   -1.9968   -1.8402   -3.4943
   -2.6968   -2.9830   -3.7788
   -2.6755   -4.0398   -2.8158
    1.1354   -0.6486   -1.8532
    1.7117    0.5030   -1.5206
    1.1703    1.5855   -1.8331
    2.8635    0.5021   -0.8555
    3.5003    1.7749   -0.4878
    2.5640    2.5674    0.4232
    2.3394    1.7990    1.7035
    1.2866    0.8821    1.8080
    1.1000    0.1426    2.9821
    1.9496    0.3348    4.0736
    2.9917    1.2653    3.9839
    3.1858    1.9904    2.8021
    1.7617   -0.3870    5.2227
    1.9232    0.2883    6.4729
    1.6735   -0.6810    7.6034
    2.6181   -1.1144    8.2614
    0.4322   -1.0656    7.8871
   -6.0461   -0.5479   -5.7608
   -6.4656    1.0328   -5.0655
   -5.5888    0.9454   -6.6086
   -4.2520   -1.5218   -4.7778
   -2.4461    1.5343   -3.6562
   -0.1748    1.4960   -2.7107
   -0.2218   -2.7643   -2.6376
   -3.1011   -3.6850   -1.8794
   -3.2608   -4.8789   -3.1860
   -1.6484   -4.3583   -2.6505
    1.5728   -1.5232   -1.6007
    3.2999   -0.3731   -0.6034
    3.7048    2.3507   -1.3880
    4.4332    1.5751    0.0353
    1.6120    2.7199   -0.0808
    3.0124    3.5318    0.6522
    0.6051    0.7305    0.9840
    0.2961   -0.5749    3.0554
    3.6461    1.4177    4.8294
    3.9993    2.6992    2.7556
    1.2126    1.1097    6.5351
    2.9364    0.6780    6.5456
    0.2652   -1.7140    8.6433
   -0.3426   -0.7093    7.3461
@<BUDE>CONF  26
   -7.7541   -1.3324   -4.5492
   -6.4409   -1.3116   -3.8041
   -5.9128   -0.2385   -3.5168
   -5.8548   -2.4543   -3.4584
   -4.6243   -2.4348   -2.7603
   -3.9981   -1.2311   -2.4061
   -2.7254   -1.2468   -1.8231
   -2.1255   -2.4634   -1.4768
   -2.7679   -3.6618   -1.8097
   -4.0323   -3.6543   -2.4104
   -4.7323   -4.7971   -2.6949
   -4.7110   -5.8539   -1.7319
   -0.9001   -2.4627   -0.7693
   -0.3238   -1.3111   -0.4367
   -0.8652   -0.2286   -0.7492
    0.8280   -1.3120    0.2284
    1.4648   -0.0392    0.5961
    2.7655   -0.3199    1.3471
    3.4198    0.9876    1.7248
    4.3270    1.6065    0.8565
    4.9060    2.8368    1.1900
    4.6032    3.4460    2.4096
    3.7131    2.8227    3.2923
    3.1227    1.6009    2.9478
    5.1748    4.6477    2.7351
    5.6083    4.8407    4.0841
    6.2041    6.2208    4.2278
    5.5757    7.1040    4.8092
    7.4079    6.4805    3.7256
   -8.0816   -2.3620   -4.6769
   -8.5011   -0.7813   -3.9816
   -7.6243   -0.8687   -5.5247
   -6.2875   -3.3359   -3.6939
   -4.4816   -0.2798   -2.5723
   -2.2103   -0.3181   -1.6268
   -2.2573   -4.5784   -1.5537
   -5.1366   -5.4991   -0.7955
   -5.2963   -6.6930   -2.1021
   -3.6839   -6.1724   -1.5666
   -0.4627   -3.3373   -0.5168
    1.2644   -2.1872    0.4805
    0.7927    0.5309    1.2339
    1.6813    0.5308   -0.3050
    3.4364   -0.8907    0.7085
    2.5478   -0.8905    2.2474
    4.5913    1.1450   -0.0834
    5.5944    3.3198    0.5123
    3.4823    3.2911    4.2376
    2.4358    1.1418    3.6433
    6.3586    4.0934    4.3337
    4.7581    4.7404    4.7555
    7.9230    5.7545    3.2483
    7.8065    7.4035    3.8218
@<BUDE>CONF  27
   -7.8766    2.3690   -4.4306
   -6.5634    2.3898   -3.6855
   -6.0353    3.4629   -3.3982
   -5.9773    1.2471   -3.3398
   -4.7468    1.2666   -2.6417
   -4.1206    2.4703   -2.2875
   -2.8479    2.4546   -1.7045
   -2.2480    1.2380   -1.3582
   -2.8904    0.0396   -1.6911
   -4.1548    0.0471   -2.2918
   -4.8548   -1.0957   -2.5763
   -4.8335   -2.1525   -1.6133
   -1.0226    1.2387   -0.6507
   -0.4463    2.3903   -0.3181
   -0.9877    3.4728   -0.6306
    0.7055    2.3894    0.3470
    1.3407    1.1156    0.7139
    2.6417    1.3941    1.4652
    3.2943    0.0855    1.8421
    2.9951   -0.5338    3.0615
    3.5718   -1.7651    3.3954
    4.4760   -2.3748    2.5230
    4.7962   -1.7510    1.3112
    4.2042   -0.5282    0.9730
    5.0422   -3.5774    2.8545
    6.4270   -3.7719    2.5554
    7.2503   -2.7478    3.2992
    7.7454   -1.7991    2.6927
    7.4397   -2.8721    4.6098
   -8.2041    1.3394   -4.5583
   -8.6236    2.9201   -3.8630
   -7.7468    2.8327   -5.4061
   -6.4100    0.3655   -3.5753
   -4.6041    3.4216   -2.4537
   -2.3328    3.3833   -1.5082
   -2.3798   -0.8770   -1.4351
   -5.2591   -1.7977   -0.6769
   -5.4188   -2.9916   -1.9835
   -3.8064   -2.4710   -1.4480
   -0.5852    0.3641   -0.3982
    1.1430    3.2639    0.5997
    1.5564    0.5458   -0.1875
    0.6678    0.5459    1.3515
    2.4247    1.9645    2.3658
    3.3133    1.9644    0.8269
    2.3137   -0.0720    3.7605
    3.3284   -2.2484    4.3300
    5.4990   -2.2198    0.6384
    4.4638   -0.0688    0.0307
    6.5857   -3.6578    1.4851
    6.7267   -4.7717    2.8626
    7.0326   -3.6514    5.1069
    7.9902   -2.1870    5.1074
@<BUDE>CONF  28
   -7.8766    2.3690   -4.4306
   -6.5634    2.3898   -3.6855
   -6.0353    3.4629   -3.3982
   -5.9773    1.2471   -3.3398
   -4.7468    1.2666   -2.6417
   -4.1206    2.4703   -2.2875
   -2.8479    2.4546   -1.7045
   -2.2480    1.2380   -1.3582
   -2.8904    0.0396   -1.6911
   -4.1548    0.0471   -2.2918
   -4.8548   -1.0957   -2.5763
   -4.8335   -2.1525   -1.6133
   -1.0226    1.2387   -0.6507
   -0.4463    2.3903   -0.3181
   -0.9877    3.4728   -0.6306
    0.7055    2.3894    0.3470
    1.3407    1.1156    0.7139
    2.6417    1.3941    1.4652
    3.2943    0.0855    1.8421
    2.9951   -0.5338    3.0615
    3.5718   -1.7651    3.3954
    4.4760   -2.3748    2.5230
    4.7962   -1.7510    1.3112
    4.2042   -0.5282    0.9730
    5.0422   -3.5774    2.8545
    6.4270   -3.7719    2.5554
    7.2503   -2.7478    3.2992
    7.7454   -1.7991    2.6927
    7.4397   -2.8721    4.6098
   -8.2041    1.3394   -4.5583
   -8.6236    2.9201   -3.8630
   -7.7468    2.8327   -5.4061
   -6.4100    0.3655   -3.5753
   -4.6041    3.4216   -2.4537
   -2.3328    3.3833   -1.5082
   -2.3798   -0.8770   -1.4351
   -5.2591   -1.7977   -0.6769
   -5.4188   -2.9916   -1.9835
   -3.8064   -2.4710   -1.4480
   -0.5852    0.3641   -0.3982
    1.1430    3.2639    0.5997
    1.5564    0.5458   -0.1875
    0.6678    0.5459    1.3515
    2.4247    1.9645    2.3658
    3.3133    1.9644    0.8269
    2.3137   -0.0720    3.7605
    3.3284   -2.2484    4.3300
    5.4990   -2.2198    0.6384
    4.4638   -0.0688    0.0307
    6.5857   -3.6578    1.4851
    6.7267   -4.7717    2.8626
    7.9904   -2.1870    5.1074
    7.0328   -3.6515    5.1068
@<BUDE>CONF  29
   -7.3361   -1.7061   -3.2520
   -6.0229   -1.6853   -2.5069
   -5.4948   -0.6122   -2.2196
   -5.4368   -2.8280   -2.1612
   -4.2063   -2.8085   -1.4631
   -3.5801   -1.6048   -1.1089
   -2.3074   -1.6205   -0.5259
   -1.7075   -2.8371   -0.1796
   -2.3499   -4.0355   -0.5125
   -3.6143   -4.0280   -1.1132
   -4.3143   -5.1708   -1.3977
   -4.2930   -6.2276   -0.4347
   -0.4821   -2.8364    0.5279
    0.0942   -1.6848    0.8605
   -0.4472   -0.6023    0.5480
    1.2460   -1.6857    1.5256
    1.8828   -0.4129    1.8933
    2.2546    0.3545    0.6253
    2.9088    1.6619    1.0030
    2.1375    2.8144    1.1950
    2.7394    4.0182    1.5808
    4.1239    4.0863    1.7509
    4.9040    2.9431    1.5401
    4.2966    1.7367    1.1713
    4.7105    5.2667    2.1241
    5.9476    5.6265    1.5036
    5.7421    5.7601    0.0136
    6.1659    4.8901   -0.7457
    5.1029    6.8183   -0.4769
   -7.6636   -2.7357   -3.3797
   -8.0831   -1.1550   -2.6844
   -7.2063   -1.2424   -4.2275
   -5.8695   -3.7096   -2.3967
   -4.0636   -0.6535   -1.2751
   -1.7923   -0.6918   -0.3296
   -1.8393   -4.9521   -0.2565
   -4.7186   -5.8728    0.5017
   -4.8783   -7.0667   -0.8049
   -3.2659   -6.5461   -0.2694
   -0.0447   -3.7110    0.7804
    1.6824   -2.5609    1.7777
    2.7811   -0.6120    2.4740
    1.1904    0.1802    2.4870
    1.3557    0.5522    0.0452
    2.9463   -0.2399    0.0322
    1.0676    2.7908    1.0505
    2.1410    4.9025    1.7427
    5.9752    2.9964    1.6670
    4.9191    0.8675    1.0187
    6.6891    4.8551    1.7003
    6.2936    6.5750    1.9090
    4.7553    7.5320    0.1475
    4.9653    6.9075   -1.4735
@<BUDE>CONF  30
   -7.3361   -1.7061   -3.2520
   -6.0229   -1.6853   -2.5069
   -5.4948   -0.6122   -2.2196
   -5.4368   -2.8280   -2.1612
   -4.2063   -2.8085   -1.4631
   -3.5801   -1.6048   -1.1089
   -2.3074   -1.6205   -0.5259
   -1.7075   -2.8371   -0.1796
   -2.3499   -4.0355   -0.5125
   -3.6143   -4.0280   -1.1132
   -4.3143   -5.1708   -1.3977
   -4.2930   -6.2276   -0.4347
   -0.4821   -2.8364    0.5279
    0.0942   -1.6848    0.8605
   -0.4472   -0.6023    0.5480
    1.2460   -1.6857    1.5256
    1.8828   -0.4129    1.8933
    2.2546    0.3545    0.6253
    2.9088    1.6619    1.0030
    2.1375    2.8144    1.1950
    2.7394    4.0182    1.5808
    4.1239    4.0863    1.7509
    4.9040    2.9431    1.5401
    4.2966    1.7367    1.1713
    4.7105    5.2667    2.1241
    5.9476    5.6265    1.5036
    5.7421    5.7601    0.0136
    6.1659    4.8901   -0.7457
    5.1029    6.8183   -0.4769
   -7.6636   -2.7357   -3.3797
   -8.0831   -1.1550   -2.6844
   -7.2063   -1.2424   -4.2275
   -5.8695   -3.7096   -2.3967
   -4.0636   -0.6535   -1.2751
   -1.7923   -0.6918   -0.3296
   -1.8393   -4.9521   -0.2565
   -4.7186   -5.8728    0.5017
   -4.8783   -7.0667   -0.8049
   -3.2659   -6.5461   -0.2694
   -0.0447   -3.7110    0.7804
    1.6824   -2.5609    1.7777
    2.7811   -0.6120    2.4740
    1.1904    0.1802    2.4870
    1.3557    0.5522    0.0452
    2.9463   -0.2399    0.0322
    1.0676    2.7908    1.0505
    2.1410    4.9025    1.7427
    5.9752    2.9964    1.6670
    4.9191    0.8675    1.0187
    6.6891    4.8551    1.7003
    6.2936    6.5750    1.9090
    4.9654    6.9076   -1.4735
    4.7554    7.5321    0.1475
@<BUDE>CONF  31
   -6.8731    0.4114   -5.4427
   -5.5599    0.4322   -4.6976
   -5.0318    1.5053   -4.4103
   -4.9738   -0.7105   -4.3519
   -3.7433   -0.6910   -3.6538
   -3.1171    0.5127   -3.2996
   -1.8444    0.4970   -2.7166
   -1.2445   -0.7196   -2.3703
   -1.8869   -1.9180   -2.7032
   -3.1513   -1.9105   -3.3039
   -3.8513   -3.0533   -3.5884
   -3.8300   -4.1101   -2.6254
   -0.0191   -0.7189   -1.6628
    0.5572    0.4327   -1.3302
    0.0158    1.5152   -1.6427
    1.7090    0.4318   -0.6651
    2.3442   -0.8420   -0.2982
    3.6452   -0.5635    0.4531
    3.3366    0.1638    1.7399
    3.2902    1.5626    1.7733
    2.9681    2.2365    2.9576
    2.7168    1.5163    4.1273
    2.7822    0.1179    4.1065
    3.0875   -0.5531    2.9163
    2.4063    2.1785    5.2857
    2.9749    1.6974    6.5064
    4.4809    1.7683    6.4215
    5.1370    0.7391    6.2693
    5.0969    2.9437    6.5112
   -7.2006   -0.6182   -5.5704
   -7.6201    0.9625   -4.8751
   -6.7433    0.8751   -6.4182
   -5.4065   -1.5921   -4.5874
   -3.6006    1.4640   -3.4658
   -1.3293    1.4257   -2.5203
   -1.3763   -2.8346   -2.4472
   -4.2556   -3.7553   -1.6890
   -4.4153   -4.9492   -2.9956
   -2.8029   -4.4286   -2.4601
    0.4183   -1.5935   -1.4103
    2.1465    1.3063   -0.4124
    2.5599   -1.4118   -1.1996
    1.6713   -1.4117    0.3394
    4.2956    0.0519   -0.1651
    4.1420   -1.5049    0.6780
    3.4997    2.1415    0.8861
    2.9183    3.3151    2.9778
    2.5926   -0.4393    5.0120
    3.1277   -1.6323    2.9244
    2.6683    0.6660    6.6668
    2.6284    2.3125    7.3343
    4.5572    3.7881    6.6362
    6.1042    2.9911    6.4542
@<BUDE>CONF  32
   -6.8731    0.4114   -5.4427
   -5.5599    0.4322   -4.6976
   -5.0318    1.5053   -4.4103
   -4.9738   -0.7105   -4.3519
   -3.7433   -0.6910   -3.6538
   -3.1171    0.5127   -3.2996
   -1.8444    0.4970   -2.7166
   -1.2445   -0.7196   -2.3703
   -1.8869   -1.9180   -2.7032
   -3.1513   -1.9105   -3.3039
   -3.8513   -3.0533   -3.5884
   -3.8300   -4.1101   -2.6254
   -0.0191   -0.7189   -1.6628
    0.5572    0.4327   -1.3302
    0.0158    1.5152   -1.6427
    1.7090    0.4318   -0.6651
    2.3442   -0.8420   -0.2982
    3.6452   -0.5635    0.4531
    3.3366    0.1638    1.7399
    3.2902    1.5626    1.7733
    2.9681    2.2365    2.9576
    2.7168    1.5163    4.1273
    2.7822    0.1179    4.1065
    3.0875   -0.5531    2.9163
    2.4063    2.1785    5.2857
    2.9749    1.6974    6.5064
    4.4809    1.7683    6.4215
    5.1370    0.7391    6.2693
    5.0969    2.9437    6.5112
   -7.2006   -0.6182   -5.5704
   -7.6201    0.9625   -4.8751
   -6.7433    0.8751   -6.4182
   -5.4065   -1.5921   -4.5874
   -3.6006    1.4640   -3.4658
   -1.3293    1.4257   -2.5203
   -1.3763   -2.8346   -2.4472
   -4.2556   -3.7553   -1.6890
   -4.4153   -4.9492   -2.9956
   -2.8029   -4.4286   -2.4601
    0.4183   -1.5935   -1.4103
    2.1465    1.3063   -0.4124
    2.5599   -1.4118   -1.1996
    1.6713   -1.4117    0.3394
    4.2956    0.0519   -0.1651
    4.1420   -1.5049    0.6780
    3.4997    2.1415    0.8861
    2.9183    3.3151    2.9778
    2.5926   -0.4393    5.0120
    3.1277   -1.6323    2.9244
    2.6683    0.6660    6.6668
    2.6284    2.3125    7.3343
    6.1042    2.9911    6.4544
    4.5572    3.7881    6.6363
@<BUDE>CONF  33
   -7.4032   -1.8243   -3.4542
   -6.0900   -1.8035   -2.7091
   -5.5619   -0.7304   -2.4218
   -5.5039   -2.9462   -2.3634
   -4.2734   -2.9267   -1.6653
   -3.6472   -1.7230   -1.3111
   -2.3745   -1.7387   -0.7281
   -1.7746   -2.9553   -0.3818
   -2.4170   -4.1537   -0.7147
   -3.6814   -4.1462   -1.3154
   -4.3814   -5.2890   -1.5999
   -4.3601   -6.3458   -0.6369
   -0.5492   -2.9546    0.3257
    0.0271   -1.8030    0.6583
   -0.5143   -0.7205    0.3458
    1.1789   -1.8039    1.3234
    1.8157   -0.5311    1.6911
    2.1875    0.2363    0.4231
    2.8417    1.5437    0.8008
    2.0704    2.6962    0.9928
    2.6723    3.9000    1.3786
    4.0568    3.9681    1.5487
    4.8369    2.8249    1.3379
    4.2295    1.6185    0.9691
    4.6434    5.1485    1.9219
    5.8805    5.5083    1.3014
    6.3513    6.8336    1.8507
    7.2902    6.8713    2.6445
    5.7506    7.9596    1.4760
   -7.7307   -2.8539   -3.5819
   -8.1502   -1.2732   -2.8866
   -7.2734   -1.3606   -4.4297
   -5.9366   -3.8278   -2.5989
   -4.1307   -0.7717   -1.4773
   -1.8594   -0.8100   -0.5318
   -1.9064   -5.0703   -0.4587
   -4.7857   -5.9910    0.2995
   -4.9454   -7.1849   -1.0071
   -3.3330   -6.6643   -0.4716
   -0.1118   -3.8292    0.5782
    1.6153   -2.6791    1.5755
    2.7140   -0.7302    2.2718
    1.1233    0.0620    2.2848
    1.2886    0.4340   -0.1570
    2.8792   -0.3581   -0.1700
    1.0005    2.6726    0.8483
    2.0739    4.7843    1.5405
    5.9081    2.8782    1.4648
    4.8520    0.7493    0.8165
    5.7354    5.5916    0.2263
    6.6258    4.7434    1.5093
    6.0655    8.8461    1.8434
    4.9796    7.9275    0.8243
@<BUDE>CONF  34
   -7.4032   -1.8243   -3.4542
   -6.0900   -1.8035   -2.7091
   -5.5619   -0.7304   -2.4218
   -5.5039   -2.9462   -2.3634
   -4.2734   -2.9267   -1.6653
   -3.6472   -1.7230   -1.3111
   -2.3745   -1.7387   -0.7281
   -1.7746   -2.9553   -0.3818
   -2.4170   -4.1537   -0.7147
   -3.6814   -4.1462   -1.3154
   -4.3814   -5.2890   -1.5999
   -4.3601   -6.3458   -0.6369
   -0.5492   -2.9546    0.3257
    0.0271   -1.8030    0.6583
   -0.5143   -0.7205    0.3458
    1.1789   -1.8039    1.3234
    1.8157   -0.5311    1.6911
    2.1875    0.2363    0.4231
    2.8417    1.5437    0.8008
    2.0704    2.6962    0.9928
    2.6723    3.9000    1.3786
    4.0568    3.9681    1.5487
    4.8369    2.8249    1.3379
    4.2295    1.6185    0.9691
    4.6434    5.1485    1.9219
    5.8805    5.5083    1.3014
    6.3513    6.8336    1.8507
    7.2902    6.8713    2.6445
    5.7506    7.9596    1.4760
   -7.7307   -2.8539   -3.5819
   -8.1502   -1.2732   -2.8866
   -7.2734   -1.3606   -4.4297
   -5.9366   -3.8278   -2.5989
   -4.1307   -0.7717   -1.4773
   -1.8594   -0.8100   -0.5318
   -1.9064   -5.0703   -0.4587
   -4.7857   -5.9910    0.2995
   -4.9454   -7.1849   -1.0071
   -3.3330   -6.6643   -0.4716
   -0.1118   -3.8292    0.5782
    1.6153   -2.6791    1.5755
    2.7140   -0.7302    2.2718
    1.1233    0.0620    2.2848
    1.2886    0.4340   -0.1570
    2.8792   -0.3581   -0.1700
    1.0005    2.6726    0.8483
    2.0739    4.7843    1.5405
    5.9081    2.8782    1.4648
    4.8520    0.7493    0.8165
    5.7354    5.5916    0.2263
    6.6258    4.7434    1.5093
    4.9797    7.9275    0.8242
    6.0656    8.8461    1.8433
@<BUDE>CONF  35
   -6.6776    0.3327   -5.5648
   -5.3644    0.3535   -4.8197
   -4.8363    1.4266   -4.5324
   -4.7783   -0.7892   -4.4740
   -3.5478   -0.7697   -3.7759
   -2.9216    0.4340   -3.4217
   -1.6489    0.4183   -2.8387
   -1.0490   -0.7983   -2.4924
   -1.6914   -1.9967   -2.8253
   -2.9558   -1.9892   -3.4260
   -3.6558   -3.1320   -3.7105
   -3.6345   -4.1888   -2.7475
    0.1764   -0.7976   -1.7849
    0.7527    0.3540   -1.4523
    0.2113    1.4365   -1.7648
    1.9045    0.3531   -0.7872
    2.5397   -0.9207   -0.4203
    3.8407   -0.6422    0.3310
    3.5321    0.0851    1.6178
    3.4857    1.4839    1.6512
    3.1636    2.1578    2.8355
    2.9123    1.4376    4.0052
    2.9777    0.0392    3.9844
    3.2830   -0.6318    2.7942
    2.6018    2.0998    5.1636
    3.1704    1.6187    6.3843
    2.7041    2.4836    7.5309
    1.8583    2.0589    8.3166
    3.2083    3.7040    7.6906
   -7.0051   -0.6969   -5.6925
   -7.4246    0.8838   -4.9972
   -6.5478    0.7964   -6.5403
   -5.2110   -1.6708   -4.7095
   -3.4051    1.3853   -3.5879
   -1.1338    1.3470   -2.6424
   -1.1808   -2.9133   -2.5693
   -4.0601   -3.8340   -1.8111
   -4.2198   -5.0279   -3.1177
   -2.6074   -4.5073   -2.5822
    0.6138   -1.6722   -1.5324
    2.3420    1.2276   -0.5345
    2.7554   -1.4905   -1.3217
    1.8668   -1.4904    0.2173
    4.4911   -0.0268   -0.2872
    4.3375   -1.5836    0.5559
    3.6952    2.0628    0.7640
    3.1138    3.2364    2.8557
    2.7881   -0.5180    4.8899
    3.3232   -1.7110    2.8023
    4.2557    1.6574    6.3181
    2.8530    0.5916    6.5515
    2.8964    4.2824    8.4575
    3.9026    4.0516    7.0448
@<BUDE>CONF  36
   -6.6776    0.3327   -5.5648
   -5.3644    0.3535   -4.8197
   -4.8363    1.4266   -4.5324
   -4.7783   -0.7892   -4.4740
   -3.5478   -0.7697   -3.7759
   -2.9216    0.4340   -3.4217
   -1.6489    0.4183   -2.8387
   -1.0490   -0.7983   -2.4924
   -1.6914   -1.9967   -2.8253
   -2.9558   -1.9892   -3.4260
   -3.6558   -3.1320   -3.7105
   -3.6345   -4.1888   -2.7475
    0.1764   -0.7976   -1.7849
    0.7527    0.3540   -1.4523
    0.2113    1.4365   -1.7648
    1.9045    0.3531   -0.7872
    2.5397   -0.9207   -0.4203
    3.8407   -0.6422    0.3310
    3.5321    0.0851    1.6178
    3.4857    1.4839    1.6512
    3.1636    2.1578    2.8355
    2.9123    1.4376    4.0052
    2.9777    0.0392    3.9844
    3.2830   -0.6318    2.7942
    2.6018    2.0998    5.1636
    3.1704    1.6187    6.3843
    2.7041    2.4836    7.5309
    1.8583    2.0589    8.3166
    3.2083    3.7040    7.6906
   -7.0051   -0.6969   -5.6925
   -7.4246    0.8838   -4.9972
   -6.5478    0.7964   -6.5403
   -5.2110   -1.6708   -4.7095
   -3.4051    1.3853   -3.5879
   -1.1338    1.3470   -2.6424
   -1.1808   -2.9133   -2.5693
   -4.0601   -3.8340   -1.8111
   -4.2198   -5.0279   -3.1177
   -2.6074   -4.5073   -2.5822
    0.6138   -1.6722   -1.5324
    2.3420    1.2276   -0.5345
    2.7554   -1.4905   -1.3217
    1.8668   -1.4904    0.2173
    4.4911   -0.0268   -0.2872
    4.3375   -1.5836    0.5559
    3.6952    2.0628    0.7640
    3.1138    3.2364    2.8557
    2.7881   -0.5180    4.8899
    3.3232   -1.7110    2.8023
    4.2557    1.6574    6.3181
    2.8530    0.5916    6.5515
    3.9028    4.0516    7.0449
    2.8965    4.2824    8.4576
@<BUDE>CONF  37
   -5.5478   -1.8773   -5.7391
   -4.2459   -1.8966   -4.9743
   -3.7321   -2.9690   -4.6601
   -3.6545   -0.7532   -4.6401
   -2.4346   -0.7713   -3.9234
   -1.8138   -1.9743   -3.5577
   -0.6726   -1.9573   -2.7470
   -0.0737   -0.7401   -2.4012
   -0.6842    0.4577   -2.7916
   -1.8366    0.4488   -3.5863
   -2.4339    1.5908   -4.0509
   -2.5210    2.7101   -3.1651
    1.1517   -0.7394   -1.6937
    1.7280    0.4122   -1.3611
    1.1866    1.4947   -1.6736
    2.8798    0.4113   -0.6960
    3.5150   -0.8625   -0.3291
    2.6018   -1.6295    0.6262
    2.4293   -0.8379    1.9005
    3.3116   -1.0144    2.9730
    3.1742   -0.2545    4.1409
    2.1341    0.6702    4.2567
    1.2352    0.8370    3.1964
    1.3862    0.0878    2.0234
    1.9995    1.4091    5.4024
    0.6801    1.6260    5.9095
    0.7558    2.4572    7.1678
    0.4238    3.6413    7.1432
    1.1814    1.9083    8.3022
   -5.8230   -0.8480   -5.9594
   -5.4292   -2.4287   -6.6696
   -6.3273   -2.3413   -5.1387
   -4.0755    0.1280   -4.8975
   -2.1987   -2.9262   -3.8929
   -0.2442   -2.8855   -2.3986
   -0.2079    1.3748   -2.4779
   -1.5194    3.0233   -2.8779
   -3.0283    3.5309   -3.6678
   -3.0816    2.4262   -2.2770
    1.5891   -1.6140   -1.4412
    3.3173    1.2858   -0.4433
    4.4672   -0.6649    0.1587
    3.6824   -1.4552   -1.2260
    3.0473   -2.5951    0.8559
    1.6315   -1.7793    0.1574
    4.1118   -1.7373    2.9140
    3.8647   -0.3817    4.9615
    0.4280    1.5486    3.2874
    0.6829    0.2375    1.2176
    0.2166    0.6678    6.1344
    0.0870    2.1502    5.1630
    1.2321    2.4642    9.1439
    1.4539    0.9360    8.3212
@<BUDE>CONF  38
   -5.5478   -1.8773   -5.7391
   -4.2459   -1.8966   -4.9743
   -3.7321   -2.9690   -4.6601
   -3.6545   -0.7532   -4.6401
   -2.4346   -0.7713   -3.9234
   -1.8138   -1.9743   -3.5577
   -0.6726   -1.9573   -2.7470
   -0.0737   -0.7401   -2.4012
   -0.6842    0.4577   -2.7916
   -1.8366    0.4488   -3.5863
   -2.4339    1.5908   -4.0509
   -2.5210    2.7101   -3.1651
    1.1517   -0.7394   -1.6937
    1.7280    0.4122   -1.3611
    1.1866    1.4947   -1.6736
    2.8798    0.4113   -0.6960
    3.5150   -0.8625   -0.3291
    2.6018   -1.6295    0.6262
    2.4293   -0.8379    1.9005
    3.3116   -1.0144    2.9730
    3.1742   -0.2545    4.1409
    2.1341    0.6702    4.2567
    1.2352    0.8370    3.1964
    1.3862    0.0878    2.0234
    1.9995    1.4091    5.4024
    0.6801    1.6260    5.9095
    0.7558    2.4572    7.1678
    0.4238    3.6413    7.1432
    1.1814    1.9083    8.3022
   -5.8230   -0.8480   -5.9594
   -5.4292   -2.4287   -6.6696
   -6.3273   -2.3413   -5.1387
   -4.0755    0.1280   -4.8975
   -2.1987   -2.9262   -3.8929
   -0.2442   -2.8855   -2.3986
   -0.2079    1.3748   -2.4779
   -1.5194    3.0233   -2.8779
   -3.0283    3.5309   -3.6678
   -3.0816    2.4262   -2.2770
    1.5891   -1.6140   -1.4412
    3.3173    1.2858   -0.4433
    4.4672   -0.6649    0.1587
    3.6824   -1.4552   -1.2260
    3.0473   -2.5951    0.8559
    1.6315   -1.7793    0.1574
    4.1118   -1.7373    2.9140
    3.8647   -0.3817    4.9615
    0.4280    1.5486    3.2874
    0.6829    0.2375    1.2176
    0.2166    0.6678    6.1344
    0.0870    2.1502    5.1630
    1.4538    0.9359    8.3212
    1.2319    2.4642    9.1439
@<BUDE>CONF  39
   -6.4803    0.4345   -4.7252
   -5.1784    0.4152   -3.9604
   -4.6646   -0.6572   -3.6462
   -4.5870    1.5586   -3.6262
   -3.3671    1.5405   -2.9095
   -2.7463    0.3375   -2.5438
   -1.6051    0.3545   -1.7331
   -1.0062    1.5717   -1.3873
   -1.6167    2.7695   -1.7777
   -2.7691    2.7606   -2.5724
   -3.3664    3.9026   -3.0370
   -2.5226    4.9600   -3.5005
    0.2192    1.5724   -0.6798
    0.7955    2.7240   -0.3472
    0.2541    3.8065   -0.6597
    1.9473    2.7231    0.3179
    2.5825    1.4493    0.6848
    1.6693    0.6823    1.6401
    2.3218   -0.6262    2.0170
    2.1011   -1.7779    1.2522
    2.7347   -2.9827    1.5798
    3.5740   -3.0526    2.6937
    3.7828   -1.9102    3.4756
    3.1612   -0.7028    3.1348
    4.1891   -4.2339    3.0144
    4.2696   -4.5949    4.3958
    2.8763   -4.7271    4.9626
    2.4316   -3.8571    5.7098
    2.1306   -5.7842    4.6534
   -6.7555    1.4638   -4.9455
   -6.3617   -0.1169   -5.6557
   -7.2598   -0.0295   -4.1248
   -5.0080    2.4398   -3.8836
   -3.1312   -0.6144   -2.8790
   -1.1767   -0.5737   -1.3847
   -1.1404    3.6866   -1.4640
   -1.9242    4.6053   -4.3371
   -3.1366    5.7984   -3.8227
   -1.8662    5.2794   -2.6938
    0.6566    0.6978   -0.4273
    2.3848    3.5976    0.5706
    3.5347    1.6469    1.1726
    2.7499    0.8566   -0.2121
    0.7172    0.4861    1.1514
    1.5021    1.2763    2.5361
    1.4411   -1.7529    0.3978
    2.5747   -3.8664    0.9799
    4.4281   -1.9649    4.3399
    3.3413    0.1658    3.7508
    4.8116   -3.8245    4.9402
    4.7925   -5.5440    4.4921
    2.4968   -6.4979    4.0397
    1.1986   -5.8726    5.0324
@<BUDE>CONF  40
   -6.4803    0.4345   -4.7252
   -5.1784    0.4152   -3.9604
   -4.6646   -0.6572   -3.6462
   -4.5870    1.5586   -3.6262
   -3.3671    1.5405   -2.9095
   -2.7463    0.3375   -2.5438
   -1.6051    0.3545   -1.7331
   -1.0062    1.5717   -1.3873
   -1.6167    2.7695   -1.7777
   -2.7691    2.7606   -2.5724
   -3.3664    3.9026   -3.0370
   -2.5226    4.9600   -3.5005
    0.2192    1.5724   -0.6798
    0.7955    2.7240   -0.3472
    0.2541    3.8065   -0.6597
    1.9473    2.7231    0.3179
    2.5825    1.4493    0.6848
    1.6693    0.6823    1.6401
    2.3218   -0.6262    2.0170
    2.1011   -1.7779    1.2522
    2.7347   -2.9827    1.5798
    3.5740   -3.0526    2.6937
    3.7828   -1.9102    3.4756
    3.1612   -0.7028    3.1348
    4.1891   -4.2339    3.0144
    4.2696   -4.5949    4.3958
    2.8763   -4.7271    4.9626
    2.4316   -3.8571    5.7098
    2.1306   -5.7842    4.6534
   -6.7555    1.4638   -4.9455
   -6.3617   -0.1169   -5.6557
   -7.2598   -0.0295   -4.1248
   -5.0080    2.4398   -3.8836
   -3.1312   -0.6144   -2.8790
   -1.1767   -0.5737   -1.3847
   -1.1404    3.6866   -1.4640
   -1.9242    4.6053   -4.3371
   -3.1366    5.7984   -3.8227
   -1.8662    5.2794   -2.6938
    0.6566    0.6978   -0.4273
    2.3848    3.5976    0.5706
    3.5347    1.6469    1.1726
    2.7499    0.8566   -0.2121
    0.7172    0.4861    1.1514
    1.5021    1.2763    2.5361
    1.4411   -1.7529    0.3978
    2.5747   -3.8664    0.9799
    4.4281   -1.9649    4.3399
    3.3413    0.1658    3.7508
    4.8116   -3.8245    4.9402
    4.7925   -5.5440    4.4921
    1.1987   -5.8727    5.0325
    2.4968   -6.4980    4.0398
@<BUDE>CONF  41
   -6.6888    0.5529   -4.6821
   -5.3869    0.5336   -3.9173
   -4.8731   -0.5388   -3.6031
   -4.7955    1.6770   -3.5831
   -3.5756    1.6589   -2.8664
   -2.9548    0.4559   -2.5007
   -1.8136    0.4729   -1.6900
   -1.2147    1.6901   -1.3442
   -1.8252    2.8879   -1.7346
   -2.9776    2.8790   -2.5293
   -3.5749    4.0210   -2.9939
   -2.7311    5.0784   -3.4574
    0.0107    1.6908   -0.6367
    0.5870    2.8424   -0.3041
    0.0456    3.9249   -0.6166
    1.7388    2.8415    0.3610
    2.3740    1.5677    0.7279
    1.4608    0.8007    1.6832
    2.1133   -0.5078    2.0601
    1.8926   -1.6595    1.2953
    2.5262   -2.8643    1.6229
    3.3655   -2.9342    2.7368
    3.5743   -1.7918    3.5187
    2.9527   -0.5844    3.1779
    3.9806   -4.1155    3.0575
    4.0611   -4.4765    4.4389
    4.7706   -5.8027    4.5711
    5.9274   -5.8421    4.9875
    4.1444   -6.9277    4.2373
   -6.9640    1.5822   -4.9024
   -6.5702    0.0015   -5.6126
   -7.4683    0.0889   -4.0817
   -5.2165    2.5582   -3.8405
   -3.3397   -0.4960   -2.8359
   -1.3852   -0.4553   -1.3416
   -1.3489    3.8050   -1.4209
   -2.1327    4.7237   -4.2940
   -3.3451    5.9168   -3.7796
   -2.0747    5.3978   -2.6507
    0.4481    0.8162   -0.3842
    2.1763    3.7160    0.6137
    3.3262    1.7653    1.2157
    2.5414    0.9750   -0.1690
    0.5087    0.6045    1.1945
    1.2936    1.3947    2.5792
    1.2326   -1.6345    0.4409
    2.3662   -3.7480    1.0230
    4.2196   -1.8465    4.3830
    3.1328    0.2842    3.7939
    3.0574   -4.5588    4.8506
    4.6147   -3.7126    4.9810
    4.6190   -7.8148    4.3258
    3.1946   -6.8941    3.8955
@<BUDE>CONF  42
   -6.6888    0.5529   -4.6821
   -5.3869    0.5336   -3.9173
   -4.8731   -0.5388   -3.6031
   -4.7955    1.6770   -3.5831
   -3.5756    1.6589   -2.8664
   -2.9548    0.4559   -2.5007
   -1.8136    0.4729   -1.6900
   -1.2147    1.6901   -1.3442
   -1.8252    2.8879   -1.7346
   -2.9776    2.8790   -2.5293
   -3.5749    4.0210   -2.9939
   -2.7311    5.0784   -3.4574
    0.0107    1.6908   -0.6367
    0.5870    2.8424   -0.3041
    0.0456    3.9249   -0.6166
    1.7388    2.8415    0.3610
    2.3740    1.5677    0.7279
    1.4608    0.8007    1.6832
    2.1133   -0.5078    2.0601
    1.8926   -1.6595    1.2953
    2.5262   -2.8643    1.6229
    3.3655   -2.9342    2.7368
    3.5743   -1.7918    3.5187
    2.9527   -0.5844    3.1779
    3.9806   -4.1155    3.0575
    4.0611   -4.4765    4.4389
    4.7706   -5.8027    4.5711
    5.9274   -5.8421    4.9875
    4.1444   -6.9277    4.2373
   -6.9640    1.5822   -4.9024
   -6.5702    0.0015   -5.6126
   -7.4683    0.0889   -4.0817
   -5.2165    2.5582   -3.8405
   -3.3397   -0.4960   -2.8359
   -1.3852   -0.4553   -1.3416
   -1.3489    3.8050   -1.4209
   -2.1327    4.7237   -4.2940
   -3.3451    5.9168   -3.7796
   -2.0747    5.3978   -2.6507
    0.4481    0.8162   -0.3842
    2.1763    3.7160    0.6137
    3.3262    1.7653    1.2157
    2.5414    0.9750   -0.1690
    0.5087    0.6045    1.1945
    1.2936    1.3947    2.5792
    1.2326   -1.6345    0.4409
    2.3662   -3.7480    1.0230
    4.2196   -1.8465    4.3830
    3.1328    0.2842    3.7939
    3.0574   -4.5588    4.8506
    4.6147   -3.7126    4.9810
    3.1945   -6.8942    3.8956
    4.6189   -7.8148    4.3259
@<BUDE>CONF  43
   -5.6549    0.6735   -5.5796
   -4.3417    0.6943   -4.8345
   -3.8136    1.7674   -4.5472
   -3.7556   -0.4484   -4.4888
   -2.5251   -0.4289   -3.7907
   -1.8989    0.7748   -3.4365
   -0.6262    0.7591   -2.8535
   -0.0263   -0.4575   -2.5072
   -0.6687   -1.6559   -2.8401
   -1.9331   -1.6484   -3.4408
   -2.6331   -2.7912   -3.7253
   -2.6118   -3.8480   -2.7623
    1.1991   -0.4568   -1.7997
    1.7754    0.6948   -1.4671
    1.2340    1.7773   -1.7796
    2.9272    0.6939   -0.8020
    3.5624   -0.5799   -0.4351
    2.6492   -1.3469    0.5202
    2.4767   -0.5553    1.7945
    3.3590   -0.7318    2.8670
    3.2216    0.0281    4.0349
    2.1815    0.9528    4.1507
    1.2826    1.1196    3.0904
    1.4336    0.3704    1.9174
    2.0469    1.6917    5.2964
    0.7275    1.9086    5.8035
    0.8032    2.7398    7.0618
    0.4712    3.9239    7.0372
    1.2288    2.1909    8.1962
   -5.9824   -0.3561   -5.7073
   -6.4019    1.2246   -5.0120
   -5.5251    1.1372   -6.5551
   -4.1883   -1.3300   -4.7243
   -2.3824    1.7261   -3.6027
   -0.1111    1.6878   -2.6572
   -0.1581   -2.5725   -2.5841
   -3.0374   -3.4932   -1.8259
   -3.1971   -4.6871   -3.1325
   -1.5847   -4.1665   -2.5970
    1.6365   -1.3314   -1.5472
    3.3647    1.5684   -0.5493
    4.5146   -0.3823    0.0527
    3.7298   -1.1726   -1.3320
    3.0947   -2.3125    0.7499
    1.6789   -1.4967    0.0514
    4.1592   -1.4547    2.8080
    3.9121   -0.0991    4.8555
    0.4754    1.8312    3.1814
    0.7303    0.5201    1.1116
    0.2640    0.9504    6.0284
    0.1344    2.4328    5.0570
    1.2795    2.7468    9.0379
    1.5013    1.2186    8.2152
@<BUDE>CONF  44
   -5.6549    0.6735   -5.5796
   -4.3417    0.6943   -4.8345
   -3.8136    1.7674   -4.5472
   -3.7556   -0.4484   -4.4888
   -2.5251   -0.4289   -3.7907
   -1.8989    0.7748   -3.4365
   -0.6262    0.7591   -2.8535
   -0.0263   -0.4575   -2.5072
   -0.6687   -1.6559   -2.8401
   -1.9331   -1.6484   -3.4408
   -2.6331   -2.7912   -3.7253
   -2.6118   -3.8480   -2.7623
    1.1991   -0.4568   -1.7997
    1.7754    0.6948   -1.4671
    1.2340    1.7773   -1.7796
    2.9272    0.6939   -0.8020
    3.5624   -0.5799   -0.4351
    2.6492   -1.3469    0.5202
    2.4767   -0.5553    1.7945
    3.3590   -0.7318    2.8670
    3.2216    0.0281    4.0349
    2.1815    0.9528    4.1507
    1.2826    1.1196    3.0904
    1.4336    0.3704    1.9174
    2.0469    1.6917    5.2964
    0.7275    1.9086    5.8035
    0.8032    2.7398    7.0618
    0.4712    3.9239    7.0372
    1.2288    2.1909    8.1962
   -5.9824   -0.3561   -5.7073
   -6.4019    1.2246   -5.0120
   -5.5251    1.1372   -6.5551
   -4.1883   -1.3300   -4.7243
   -2.3824    1.7261   -3.6027
   -0.1111    1.6878   -2.6572
   -0.1581   -2.5725   -2.5841
   -3.0374   -3.4932   -1.8259
   -3.1971   -4.6871   -3.1325
   -1.5847   -4.1665   -2.5970
    1.6365   -1.3314   -1.5472
    3.3647    1.5684   -0.5493
    4.5146   -0.3823    0.0527
    3.7298   -1.1726   -1.3320
    3.0947   -2.3125    0.7499
    1.6789   -1.4967    0.0514
    4.1592   -1.4547    2.8080
    3.9121   -0.0991    4.8555
    0.4754    1.8312    3.1814
    0.7303    0.5201    1.1116
    0.2640    0.9504    6.0284
    0.1344    2.4328    5.0570
    1.5012    1.2185    8.2152
    1.2793    2.7468    9.0379
@<BUDE>CONF  45
   -5.5843    0.8876   -5.4875
   -4.2711    0.9084   -4.7424
   -3.7430    1.9815   -4.4551
   -3.6850   -0.2343   -4.3967
   -2.4545   -0.2148   -3.6986
   -1.8283    0.9889   -3.3444
   -0.5556    0.9732   -2.7614
    0.0443   -0.2434   -2.4151
   -0.5981   -1.4418   -2.7480
   -1.8625   -1.4343   -3.3487
   -2.5625   -2.5771   -3.6332
   -2.5412   -3.6339   -2.6702
    1.2697   -0.2427   -1.7076
    1.8460    0.9089   -1.3750
    1.3046    1.9914   -1.6875
    2.9978    0.9080   -0.7099
    3.6330   -0.3658   -0.3430
    2.7198   -1.1328    0.6123
    2.5473   -0.3412    1.8866
    3.4296   -0.5177    2.9591
    3.2922    0.2422    4.1270
    2.2521    1.1669    4.2428
    1.3532    1.3337    3.1825
    1.5042    0.5845    2.0095
    2.1175    1.9058    5.3885
    0.7981    2.1227    5.8956
    0.1616    0.7937    6.2250
   -0.7128    0.3327    5.4929
    0.5468    0.1222    7.3065
   -5.9118   -0.1420   -5.6152
   -6.3313    1.4387   -4.9199
   -5.4545    1.3513   -6.4630
   -4.1177   -1.1159   -4.6322
   -2.3118    1.9402   -3.5106
   -0.0405    1.9019   -2.5651
   -0.0875   -2.3584   -2.4920
   -2.9668   -3.2791   -1.7338
   -3.1265   -4.4730   -3.0404
   -1.5141   -3.9524   -2.5049
    1.7071   -1.1173   -1.4551
    3.4353    1.7825   -0.4572
    4.5852   -0.1682    0.1448
    3.8004   -0.9585   -1.2399
    3.1653   -2.0984    0.8420
    1.7495   -1.2826    0.1435
    4.2298   -1.2406    2.9001
    3.9827    0.1150    4.9476
    0.5460    2.0453    3.2735
    0.8009    0.7342    1.2037
    0.2011    2.6351    5.1440
    0.8516    2.7327    6.7949
    1.2649    0.5016    7.9069
    0.1212   -0.7668    7.5267
@<BUDE>CONF  46
   -5.5842    0.8876   -5.4875
   -4.2710    0.9084   -4.7424
   -3.7429    1.9815   -4.4551
   -3.6849   -0.2343   -4.3967
   -2.4544   -0.2148   -3.6986
   -1.8282    0.9889   -3.3444
   -0.5555    0.9732   -2.7614
    0.0444   -0.2434   -2.4151
   -0.5980   -1.4418   -2.7480
   -1.8624   -1.4343   -3.3487
   -2.5624   -2.5771   -3.6332
   -2.5411   -3.6339   -2.6702
    1.2698   -0.2427   -1.7076
    1.8461    0.9089   -1.3750
    1.3047    1.9914   -1.6875
    2.9979    0.9080   -0.7099
    3.6331   -0.3658   -0.3430
    2.7199   -1.1328    0.6123
    2.5474   -0.3412    1.8866
    3.4297   -0.5177    2.9591
    3.2923    0.2422    4.1270
    2.2522    1.1669    4.2428
    1.3533    1.3337    3.1825
    1.5043    0.5845    2.0095
    2.1176    1.9058    5.3885
    0.7982    2.1227    5.8956
    0.1617    0.7937    6.2250
   -0.7127    0.3327    5.4929
    0.5469    0.1222    7.3065
   -5.9117   -0.1420   -5.6152
   -6.3312    1.4387   -4.9199
   -5.4544    1.3513   -6.4630
   -4.1176   -1.1159   -4.6322
   -2.3117    1.9402   -3.5106
   -0.0404    1.9019   -2.5651
   -0.0874   -2.3584   -2.4920
   -2.9667   -3.2791   -1.7338
   -3.1264   -4.4730   -3.0404
   -1.5140   -3.9524   -2.5049
    1.7072   -1.1173   -1.4551
    3.4354    1.7825   -0.4572
    4.5853   -0.1682    0.1448
    3.8005   -0.9585   -1.2399
    3.1654   -2.0984    0.8420
    1.7496   -1.2826    0.1435
    4.2299   -1.2406    2.9001
    3.9828    0.1150    4.9476
    0.5461    2.0453    3.2735
    0.8010    0.7342    1.2037
    0.2012    2.6351    5.1440
    0.8517    2.7327    6.7949
    0.1212   -0.7668    7.5268
    1.2649    0.5017    7.9070
@<BUDE>CONF  47
   -6.5038    2.9798   -4.6869
   -5.1906    3.0006   -3.9418
   -4.6625    4.0737   -3.6545
   -4.6045    1.8579   -3.5961
   -3.3740    1.8774   -2.8980
   -2.7478    3.0811   -2.5438
   -1.4751    3.0654   -1.9608
   -0.8752    1.8488   -1.6145
   -1.5176    0.6504   -1.9474
   -2.7820    0.6579   -2.5481
   -3.4820   -0.4849   -2.8326
   -3.4607   -1.5417   -1.8696
    0.3502    1.8495   -0.9070
    0.9265    3.0011   -0.5744
    0.3851    4.0836   -0.8869
    2.0783    3.0002    0.0907
    2.7135    1.7264    0.4576
    1.8003    0.9594    1.4129
    2.4528   -0.3491    1.7898
    2.2321   -1.5008    1.0250
    2.8657   -2.7056    1.3526
    3.7050   -2.7755    2.4665
    3.9138   -1.6331    3.2484
    3.2922   -0.4257    2.9076
    4.3201   -3.9568    2.7872
    4.4006   -4.3178    4.1686
    3.0073   -4.4500    4.7354
    2.5626   -3.5800    5.4826
    2.2616   -5.5071    4.4262
   -6.8313    1.9502   -4.8146
   -7.2508    3.5309   -4.1193
   -6.3740    3.4435   -5.6624
   -5.0372    0.9763   -3.8316
   -3.2313    4.0324   -2.7100
   -0.9600    3.9941   -1.7645
   -1.0070   -0.2662   -1.6914
   -3.8863   -1.1869   -0.9332
   -4.0460   -2.3808   -2.2398
   -2.4336   -1.8602   -1.7043
    0.7876    0.9749   -0.6545
    2.5158    3.8747    0.3434
    3.6657    1.9240    0.9454
    2.8809    1.1337   -0.4393
    0.8482    0.7632    0.9242
    1.6331    1.5534    2.3089
    1.5721   -1.4758    0.1706
    2.7057   -3.5893    0.7527
    4.5591   -1.6878    4.1127
    3.4723    0.4429    3.5236
    4.9426   -3.5474    4.7130
    4.9235   -5.2669    4.2649
    2.6278   -6.2208    3.8125
    1.3296   -5.5955    4.8052
@<BUDE>CONF  48
   -6.5038    2.9798   -4.6869
   -5.1906    3.0006   -3.9418
   -4.6625    4.0737   -3.6545
   -4.6045    1.8579   -3.5961
   -3.3740    1.8774   -2.8980
   -2.7478    3.0811   -2.5438
   -1.4751    3.0654   -1.9608
   -0.8752    1.8488   -1.6145
   -1.5176    0.6504   -1.9474
   -2.7820    0.6579   -2.5481
   -3.4820   -0.4849   -2.8326
   -3.4607   -1.5417   -1.8696
    0.3502    1.8495   -0.9070
    0.9265    3.0011   -0.5744
    0.3851    4.0836   -0.8869
    2.0783    3.0002    0.0907
    2.7135    1.7264    0.4576
    1.8003    0.9594    1.4129
    2.4528   -0.3491    1.7898
    2.2321   -1.5008    1.0250
    2.8657   -2.7056    1.3526
    3.7050   -2.7755    2.4665
    3.9138   -1.6331    3.2484
    3.2922   -0.4257    2.9076
    4.3201   -3.9568    2.7872
    4.4006   -4.3178    4.1686
    3.0073   -4.4500    4.7354
    2.5626   -3.5800    5.4826
    2.2616   -5.5071    4.4262
   -6.8313    1.9502   -4.8146
   -7.2508    3.5309   -4.1193
   -6.3740    3.4435   -5.6624
   -5.0372    0.9763   -3.8316
   -3.2313    4.0324   -2.7100
   -0.9600    3.9941   -1.7645
   -1.0070   -0.2662   -1.6914
   -3.8863   -1.1869   -0.9332
   -4.0460   -2.3808   -2.2398
   -2.4336   -1.8602   -1.7043
    0.7876    0.9749   -0.6545
    2.5158    3.8747    0.3434
    3.6657    1.9240    0.9454
    2.8809    1.1337   -0.4393
    0.8482    0.7632    0.9242
    1.6331    1.5534    2.3089
    1.5721   -1.4758    0.1706
    2.7057   -3.5893    0.7527
    4.5591   -1.6878    4.1127
    3.4723    0.4429    3.5236
    4.9426   -3.5474    4.7130
    4.9235   -5.2669    4.2649
    1.3297   -5.5956    4.8053
    2.6278   -6.2209    3.8126
@<BUDE>CONF  49
   -6.7123    3.0981   -4.6438
   -5.3991    3.1189   -3.8987
   -4.8710    4.1920   -3.6114
   -4.8130    1.9762   -3.5530
   -3.5825    1.9957   -2.8549
   -2.9563    3.1994   -2.5007
   -1.6836    3.1837   -1.9177
   -1.0837    1.9671   -1.5714
   -1.7261    0.7687   -1.9043
   -2.9905    0.7762   -2.5050
   -3.6905   -0.3666   -2.7895
   -3.6692   -1.4234   -1.8265
    0.1417    1.9678   -0.8639
    0.7180    3.1194   -0.5313
    0.1766    4.2019   -0.8438
    1.8698    3.1185    0.1338
    2.5050    1.8447    0.5007
    1.5918    1.0777    1.4560
    2.2443   -0.2308    1.8329
    2.0236   -1.3825    1.0681
    2.6572   -2.5873    1.3957
    3.4965   -2.6572    2.5096
    3.7053   -1.5148    3.2915
    3.0837   -0.3074    2.9507
    4.1116   -3.8385    2.8303
    4.1921   -4.1995    4.2117
    4.9016   -5.5257    4.3439
    6.0584   -5.5651    4.7603
    4.2754   -6.6507    4.0101
   -7.0398    2.0685   -4.7715
   -7.4593    3.6492   -4.0762
   -6.5825    3.5618   -5.6193
   -5.2457    1.0946   -3.7885
   -3.4398    4.1507   -2.6669
   -1.1685    4.1124   -1.7214
   -1.2155   -0.1479   -1.6483
   -4.0948   -1.0686   -0.8901
   -4.2545   -2.2625   -2.1967
   -2.6421   -1.7419   -1.6612
    0.5791    1.0932   -0.6114
    2.3073    3.9930    0.3865
    3.4572    2.0423    0.9885
    2.6724    1.2520   -0.3962
    0.6397    0.8815    0.9673
    1.4246    1.6717    2.3520
    1.3636   -1.3575    0.2137
    2.4972   -3.4710    0.7958
    4.3506   -1.5695    4.1558
    3.2638    0.5612    3.5667
    3.1884   -4.2818    4.6234
    4.7457   -3.4356    4.7538
    4.7500   -7.5378    4.0986
    3.3256   -6.6171    3.6683
@<BUDE>CONF  50
   -6.7122    3.0982   -4.6438
   -5.3990    3.1190   -3.8987
   -4.8709    4.1921   -3.6114
   -4.8129    1.9763   -3.5530
   -3.5824    1.9958   -2.8549
   -2.9562    3.1995   -2.5007
   -1.6835    3.1838   -1.9177
   -1.0836    1.9672   -1.5714
   -1.7260    0.7688   -1.9043
   -2.9904    0.7763   -2.5050
   -3.6904   -0.3665   -2.7895
   -3.6691   -1.4233   -1.8265
    0.1418    1.9679   -0.8639
    0.7181    3.1195   -0.5313
    0.1767    4.2020   -0.8438
    1.8699    3.1186    0.1338
    2.5051    1.8448    0.5007
    1.5919    1.0778    1.4560
    2.2444   -0.2307    1.8329
    2.0237   -1.3824    1.0681
    2.6573   -2.5872    1.3957
    3.4966   -2.6571    2.5096
    3.7054   -1.5147    3.2915
    3.0838   -0.3073    2.9507
    4.1117   -3.8384    2.8303
    4.1922   -4.1994    4.2117
    4.9017   -5.5256    4.3439
    6.0585   -5.5650    4.7603
    4.2755   -6.6506    4.0101
   -7.0397    2.0686   -4.7715
   -7.4592    3.6493   -4.0762
   -6.5824    3.5619   -5.6193
   -5.2456    1.0947   -3.7885
   -3.4397    4.1508   -2.6669
   -1.1684    4.1125   -1.7214
   -1.2154   -0.1478   -1.6483
   -4.0947   -1.0685   -0.8901
   -4.2544   -2.2624   -2.1967
   -2.6420   -1.7418   -1.6612
    0.5792    1.0933   -0.6114
    2.3074    3.9931    0.3865
    3.4573    2.0424    0.9885
    2.6725    1.2521   -0.3962
    0.6398    0.8816    0.9673
    1.4247    1.6718    2.3520
    1.3637   -1.3574    0.2137
    2.4973   -3.4709    0.7958
    4.3507   -1.5694    4.1558
    3.2639    0.5613    3.5667
    3.1885   -4.2817    4.6234
    4.7458   -3.4355    4.7538
    3.3256   -6.6171    3.6684
    4.7500   -7.5377    4.0987
