#        1GCZ_R01_S0001_C0000_L00003_S0001_C0048_G0010_E0001.mol2
#        Tue Jun  6 14:05:04 2017
#        Descriptor:     23    12    19    13     7    14
#        Energy - RMSD - RMSD MassCentre:     -60.1921    999.9999    999.9999
#        Receptor:       1  Surface Point:     1  Conformer:     0
#        Ligand:         3  Surface Point:     1  Conformer:    48
#        BUDE Formal Charge: 0
#        ATOM Count: 58
#        Heavy ATOM Count: 30
@<TRIPOS>MOLECULE
ZINC61580633_1GCZ_R01_S0001_C0000_L00003_S0001_C0048_G0010_E0001
 58 59 0 0 0
SMALL
USER_CHARGES
@<TRIPOS>ATOM
       1 C1         2.1309    5.1721    8.5104 C.3       1 <0>        -0.1532 
       2 C2         1.4838    3.8903    9.0272 C.3       1 <0>        -0.1224 
       3 C3         2.2275    2.6814    8.4611 C.3       1 <0>        -0.1198 
       4 C4         3.6844    2.7200    8.9203 C.3       1 <0>         0.0610 
       5 O1         4.3803    1.5886    8.3906 O.3       1 <0>        -0.3878 
       6 C5         4.3768    1.5802    6.9605 C.3       1 <0>         0.0487 
       7 C6         5.1331    0.3515    6.4575 C.3       1 <0>         0.1244 
       8 N1         4.3296   -0.8538    6.7079 N.am      1 <0>        -0.7216 
       9 C7         3.2381   -1.0869    5.9845 C.2       1 <0>         0.5161 
      10 O2         2.9007   -0.2948    5.1062 O.2       1 <0>        -0.5151 
      11 C8         2.4128   -2.3250    6.2416 C.3       1 <0>         0.0490 
      12 O3         3.1427   -3.4797    5.8188 O.3       1 <0>        -0.3194 
      13 C9         2.5601   -4.6880    5.9713 C.2       1 <0>         0.5417 
      14 O4         1.4442   -4.7710    6.4573 O.2       1 <0>        -0.5337 
      15 C10        3.2757   -5.9124    5.5487 C.2       1 <0>        -0.2559 
      16 C11        2.7367   -7.2843    5.6827 C.2       1 <0>        -0.0791 
      17 C12        3.5884   -8.2111    5.2378 C.2       1 <0>        -0.2585 
      18 S1         5.0939   -7.5147    4.6206 S.3       1 <0>         0.3028 
      19 C13        4.5018   -5.8925    5.0086 C.2       1 <0>         0.0893 
      20 N2         5.1907   -4.7258    4.8056 N.am      1 <0>        -0.6099 
      21 C14        6.4060   -4.7554    4.2660 C.2       1 <0>         0.5551 
      22 O5         6.9117   -5.8309    3.9490 O.2       1 <0>        -0.4939 
      23 C15        7.1488   -3.4942    4.0474 C.ar      1 <0>        -0.1466 
      24 C16        8.4262   -3.5718    3.4796 C.ar      1 <0>        -0.0772 
      25 C17        9.2069   -2.4213    3.3162 C.ar      1 <0>        -0.1241 
      26 C18        8.7280   -1.1719    3.7272 C.ar      1 <0>        -0.0446 
      27 C19        7.4307   -1.0837    4.2461 C.ar      1 <0>        -0.1261 
      28 C20        6.6421   -2.2325    4.3809 C.ar      1 <0>        -0.0460 
      29 C21        9.6095    0.0476    3.5995 C.3       1 <0>        -0.0928 
      30 C22       10.4194    0.2251    4.8805 C.3       1 <0>        -0.1485 
      31 H1         2.0685    5.1968    7.4245 H         1 <0>         0.0567 
      32 H2         3.1750    5.1987    8.8150 H         1 <0>         0.0554 
      33 H3         1.6098    6.0329    8.9241 H         1 <0>         0.0557 
      34 H4         1.5344    3.8703   10.1137 H         1 <0>         0.0632 
      35 H5         0.4433    3.8556    8.7112 H         1 <0>         0.0635 
      36 H6         1.7593    1.7668    8.8187 H         1 <0>         0.0711 
      37 H7         2.1897    2.7079    7.3741 H         1 <0>         0.0704 
      38 H8         4.1540    3.6339    8.5625 H         1 <0>         0.0498 
      39 H9         3.7235    2.6928   10.0072 H         1 <0>         0.0505 
      40 H10        4.8625    2.4807    6.5906 H         1 <0>         0.0584 
      41 H11        3.3509    1.5465    6.5999 H         1 <0>         0.0702 
      42 H12        6.0825    0.2692    6.9825 H         1 <0>         0.0872 
      43 H13        5.3157    0.4495    5.3895 H         1 <0>         0.0805 
      44 H14        4.6059   -1.5049    7.4288 H         1 <0>         0.4058 
      45 H15        2.1963   -2.4029    7.3050 H         1 <0>         0.1008 
      46 H16        1.4803   -2.2621    5.6847 H         1 <0>         0.0999 
      47 H17        1.7563   -7.4884    6.0868 H         1 <0>         0.1557 
      48 H18        3.3620   -9.2670    5.2480 H         1 <0>         0.1929 
      49 H19        4.7755   -3.8428    5.0658 H         1 <0>         0.4317 
      50 H20        8.8176   -4.5288    3.1678 H         1 <0>         0.1287 
      51 H21       10.1883   -2.4926    2.8713 H         1 <0>         0.1326 
      52 H22        7.0461   -0.1172    4.5367 H         1 <0>         0.1342 
      53 H23        5.6298   -2.0951    4.7312 H         1 <0>         0.1410 
      54 H24        8.9896    0.9268    3.4368 H         1 <0>         0.0777 
      55 H25       10.2856   -0.0811    2.7570 H         1 <0>         0.0771 
      56 H26       11.0480   -0.6493    5.0354 H         1 <0>         0.0623 
      57 H27        9.7420    0.3395    5.7243 H         1 <0>         0.0572 
      58 H28       11.0445    1.1113    4.7936 H         1 <0>         0.0578 
@<TRIPOS>BOND
       1        1        2 1        
       2        1       31 1        
       3        1       32 1        
       4        1       33 1        
       5        2        3 1        
       6        2       34 1        
       7        2       35 1        
       8        3        4 1        
       9        3       36 1        
      10        3       37 1        
      11        4        5 1        
      12        4       38 1        
      13        4       39 1        
      14        5        6 1        
      15        6        7 1        
      16        6       40 1        
      17        6       41 1        
      18        7        8 1        
      19        7       42 1        
      20        7       43 1        
      21        8        9 am       
      22        8       44 1        
      23        9       10 2        
      24        9       11 1        
      25       11       12 1        
      26       11       45 1        
      27       11       46 1        
      28       12       13 1        
      29       13       14 2        
      30       13       15 1        
      31       15       19 2        
      32       15       16 1        
      33       16       17 2        
      34       16       47 1        
      35       17       18 1        
      36       17       48 1        
      37       18       19 1        
      38       19       20 1        
      39       20       21 am       
      40       20       49 1        
      41       21       22 2        
      42       21       23 1        
      43       23       28 ar       
      44       23       24 ar       
      45       24       25 ar       
      46       24       50 1        
      47       25       26 ar       
      48       25       51 1        
      49       26       27 ar       
      50       26       29 1        
      51       27       28 ar       
      52       27       52 1        
      53       28       53 1        
      54       29       30 1        
      55       29       54 1        
      56       29       55 1        
      57       30       56 1        
      58       30       57 1        
      59       30       58 1        

