#        1GCZ_R01_S0001_C0000_L00003_S0001_C0049_G0010_E0001.mol2
#        Tue Jun  6 09:55:17 2017
#        Descriptor:     24    30    31    11     8    14
#        Energy - RMSD - RMSD MassCentre:     -67.8574    999.9999    999.9999
#        Receptor:       1  Surface Point:     1  Conformer:     0
#        Ligand:         3  Surface Point:     1  Conformer:    49
#        BUDE Formal Charge: 0
#        ATOM Count: 58
#        Heavy ATOM Count: 30
@<TRIPOS>MOLECULE
ZINC61580633_1GCZ_R01_S0001_C0000_L00003_S0001_C0049_G0010_E0001
 58 59 0 0 0
SMALL
USER_CHARGES
@<TRIPOS>ATOM
       1 C1         2.0128    6.6865    8.9905 C.3       1 <0>        -0.1532 
       2 C2         1.4237    7.2921    7.7196 C.3       1 <0>        -0.1224 
       3 C3         1.9792    6.5563    6.5010 C.3       1 <0>        -0.1198 
       4 C4         1.5859    5.0815    6.5748 C.3       1 <0>         0.0610 
       5 O1         0.1616    4.9656    6.5210 O.3       1 <0>        -0.3878 
       6 C5        -0.2667    3.6028    6.5863 C.3       1 <0>         0.0487 
       7 C6         0.3056    2.8325    5.3974 C.3       1 <0>         0.1244 
       8 N1        -0.1348    1.4316    5.4645 N.am      1 <0>        -0.7216 
       9 C7         0.2456    0.5697    4.5257 C.2       1 <0>         0.5161 
      10 O2        -0.1222   -0.6026    4.5806 O.2       1 <0>        -0.5151 
      11 C8         1.1294    1.0309    3.3915 C.3       1 <0>         0.0490 
      12 O3         2.4372    1.3178    3.8938 O.3       1 <0>        -0.3194 
      13 C9         3.1456    0.3025    4.4322 C.2       1 <0>         0.5417 
      14 O4         2.6669   -0.8187    4.4794 O.2       1 <0>        -0.5337 
      15 C10        4.5038    0.5496    4.9654 C.2       1 <0>        -0.2559 
      16 C11        5.1833    1.8643    4.9462 C.2       1 <0>        -0.0791 
      17 C12        6.4072    1.8121    5.4770 C.2       1 <0>        -0.2585 
      18 S1         6.8366    0.1916    6.0444 S.3       1 <0>         0.3028 
      19 C13        5.2601   -0.4118    5.5123 C.2       1 <0>         0.0893 
      20 N2         4.8281   -1.7075    5.6193 N.am      1 <0>        -0.6099 
      21 C14        5.6143   -2.6282    6.1698 C.2       1 <0>         0.5551 
      22 O5         6.7299   -2.3163    6.5832 O.2       1 <0>        -0.4939 
      23 C15        5.1460   -4.0275    6.2848 C.ar      1 <0>        -0.1466 
      24 C16        6.0072   -4.9647    6.8681 C.ar      1 <0>        -0.0772 
      25 C17        5.6506   -6.3166    6.9379 C.ar      1 <0>        -0.1241 
      26 C18        4.4293   -6.7585    6.4161 C.ar      1 <0>        -0.0446 
      27 C19        3.5436   -5.8158    5.8804 C.ar      1 <0>        -0.1261 
      28 C20        3.8917   -4.4604    5.8388 C.ar      1 <0>        -0.0460 
      29 C21        4.0902   -8.2297    6.4452 C.3       1 <0>        -0.0928 
      30 C22        4.5828   -8.8898    5.1606 C.3       1 <0>        -0.1485 
      31 H1         3.0951    6.7962    8.9757 H         1 <0>         0.0567 
      32 H2         1.7553    5.6307    9.0413 H         1 <0>         0.0554 
      33 H3         1.6070    7.2016    9.8586 H         1 <0>         0.0557 
      34 H4         0.3403    7.1942    7.7389 H         1 <0>         0.0632 
      35 H5         1.6923    8.3447    7.6604 H         1 <0>         0.0635 
      36 H6         1.5696    6.9952    5.5938 H         1 <0>         0.0711 
      37 H7         3.0637    6.6415    6.4885 H         1 <0>         0.0704 
      38 H8         2.0247    4.5462    5.7353 H         1 <0>         0.0498 
      39 H9         1.9489    4.6551    7.5076 H         1 <0>         0.0505 
      40 H10       -1.3535    3.5617    6.5551 H         1 <0>         0.0584 
      41 H11        0.0873    3.1547    7.5124 H         1 <0>         0.0702 
      42 H12        1.3924    2.8721    5.4280 H         1 <0>         0.0872 
      43 H13       -0.0484    3.2792    4.4707 H         1 <0>         0.0805 
      44 H14       -0.7260    1.1231    6.2231 H         1 <0>         0.4058 
      45 H15        1.1943    0.2471    2.6397 H         1 <0>         0.1008 
      46 H16        0.7082    1.9289    2.9448 H         1 <0>         0.0999 
      47 H17        4.7173    2.7556    4.5528 H         1 <0>         0.1557 
      48 H18        7.0480    2.6777    5.5564 H         1 <0>         0.1929 
      49 H19        3.9120   -1.9637    5.2800 H         1 <0>         0.4317 
      50 H20        6.9592   -4.6445    7.2650 H         1 <0>         0.1287 
      51 H21        6.3204   -7.0294    7.3958 H         1 <0>         0.1326 
      52 H22        2.5875   -6.1483    5.5038 H         1 <0>         0.1342 
      53 H23        3.1454   -3.7728    5.4693 H         1 <0>         0.1410 
      54 H24        3.0120   -8.3512    6.5258 H         1 <0>         0.0777 
      55 H25        4.5732   -8.6957    7.3015 H         1 <0>         0.0771 
      56 H26        5.6626   -8.7786    5.0875 H         1 <0>         0.0623 
      57 H27        4.1097   -8.4136    4.3044 H         1 <0>         0.0572 
      58 H28        4.3266   -9.9471    5.1758 H         1 <0>         0.0578 
@<TRIPOS>BOND
       1        1        2 1        
       2        1       31 1        
       3        1       32 1        
       4        1       33 1        
       5        2        3 1        
       6        2       34 1        
       7        2       35 1        
       8        3        4 1        
       9        3       36 1        
      10        3       37 1        
      11        4        5 1        
      12        4       38 1        
      13        4       39 1        
      14        5        6 1        
      15        6        7 1        
      16        6       40 1        
      17        6       41 1        
      18        7        8 1        
      19        7       42 1        
      20        7       43 1        
      21        8        9 am       
      22        8       44 1        
      23        9       10 2        
      24        9       11 1        
      25       11       12 1        
      26       11       45 1        
      27       11       46 1        
      28       12       13 1        
      29       13       14 2        
      30       13       15 1        
      31       15       19 2        
      32       15       16 1        
      33       16       17 2        
      34       16       47 1        
      35       17       18 1        
      36       17       48 1        
      37       18       19 1        
      38       19       20 1        
      39       20       21 am       
      40       20       49 1        
      41       21       22 2        
      42       21       23 1        
      43       23       28 ar       
      44       23       24 ar       
      45       24       25 ar       
      46       24       50 1        
      47       25       26 ar       
      48       25       51 1        
      49       26       27 ar       
      50       26       29 1        
      51       27       28 ar       
      52       27       52 1        
      53       28       53 1        
      54       29       30 1        
      55       29       54 1        
      56       29       55 1        
      57       30       56 1        
      58       30       57 1        
      59       30       58 1        

