#        1GCZ_R01_S0001_C0000_L00003_S0001_C0049_G0010_E0001.mol2
#        Tue Jun  6 14:05:06 2017
#        Descriptor:     19     5    29     9    10    13
#        Energy - RMSD - RMSD MassCentre:     -63.5908    999.9999    999.9999
#        Receptor:       1  Surface Point:     1  Conformer:     0
#        Ligand:         3  Surface Point:     1  Conformer:    49
#        BUDE Formal Charge: 0
#        ATOM Count: 58
#        Heavy ATOM Count: 30
@<TRIPOS>MOLECULE
ZINC61580633_1GCZ_R01_S0001_C0000_L00003_S0001_C0049_G0010_E0001
 58 59 0 0 0
SMALL
USER_CHARGES
@<TRIPOS>ATOM
       1 C1         0.7233    1.5991   -2.3750 C.3       1 <0>        -0.1532 
       2 C2         0.0700    0.2200   -2.3881 C.3       1 <0>        -0.1224 
       3 C3         0.4688   -0.5434   -1.1259 C.3       1 <0>        -0.1198 
       4 C4        -0.0150    0.2216    0.1052 C.3       1 <0>         0.0610 
       5 O1        -1.4433    0.2913    0.0912 O.3       1 <0>        -0.3878 
       6 C5        -1.9551    0.9987    1.2238 C.3       1 <0>         0.0487 
       7 C6        -1.5394    0.2767    2.5045 C.3       1 <0>         0.1244 
       8 N1        -2.0657    1.0038    3.6687 N.am      1 <0>        -0.7216 
       9 C7        -1.8256    0.5542    4.8972 C.2       1 <0>         0.5161 
      10 O2        -2.2653    1.1616    5.8721 O.2       1 <0>        -0.5151 
      11 C8        -1.0127   -0.7029    5.0951 C.3       1 <0>         0.0490 
      12 O3         0.3494   -0.4493    4.7415 O.3       1 <0>        -0.3194 
      13 C9         1.0313    0.4653    5.4632 C.2       1 <0>         0.5417 
      14 O4         0.4841    1.0471    6.3854 O.2       1 <0>        -0.5337 
      15 C10        2.4436    0.7624    5.1356 C.2       1 <0>        -0.2559 
      16 C11        3.2059    0.1069    4.0495 C.2       1 <0>        -0.0791 
      17 C12        4.4642    0.5463    3.9743 C.2       1 <0>        -0.2585 
      18 S1         4.8305    1.7791    5.1902 S.3       1 <0>         0.3028 
      19 C13        3.1774    1.6576    5.8106 C.2       1 <0>         0.0893 
      20 N2         2.6700    2.3711    6.8644 N.am      1 <0>        -0.6099 
      21 C14        3.4366    3.2492    7.5047 C.2       1 <0>         0.5551 
      22 O5         4.6019    3.4210    7.1505 O.2       1 <0>        -0.4939 
      23 C15        2.8869    4.0192    8.6428 C.ar      1 <0>        -0.1466 
      24 C16        3.7297    4.9307    9.2901 C.ar      1 <0>        -0.0772 
      25 C17        3.2903    5.6338   10.4180 C.ar      1 <0>        -0.1241 
      26 C18        2.0019    5.4308   10.9261 C.ar      1 <0>        -0.0446 
      27 C19        1.1392    4.5600   10.2498 C.ar      1 <0>        -0.1261 
      28 C20        1.5727    3.8807    9.1051 C.ar      1 <0>        -0.0460 
      29 C21        1.5684    6.1523   12.1799 C.3       1 <0>        -0.0928 
      30 C22        1.9041    5.2982   13.3990 C.3       1 <0>        -0.1485 
      31 H1         1.8054    1.4869   -2.3580 H         1 <0>         0.0567 
      32 H2         0.4008    2.1440   -1.4903 H         1 <0>         0.0554 
      33 H3         0.4287    2.1476   -3.2670 H         1 <0>         0.0557 
      34 H4        -1.0119    0.3309   -2.4176 H         1 <0>         0.0632 
      35 H5         0.4028   -0.3313   -3.2650 H         1 <0>         0.0635 
      36 H6         0.0137   -1.5314   -1.1400 H         1 <0>         0.0711 
      37 H7         1.5516   -0.6425   -1.0881 H         1 <0>         0.0704 
      38 H8         0.3135   -0.2937    1.0054 H         1 <0>         0.0498 
      39 H9         0.3967    1.2286    0.0920 H         1 <0>         0.0505 
      40 H10       -3.0409    1.0386    1.1668 H         1 <0>         0.0584 
      41 H11       -1.5543    2.0101    1.2319 H         1 <0>         0.0702 
      42 H12       -0.4538    0.2368    2.5631 H         1 <0>         0.0872 
      43 H13       -1.9404   -0.7347    2.4980 H         1 <0>         0.0805 
      44 H14       -2.6094    1.8446    3.5363 H         1 <0>         0.4058 
      45 H15       -1.0651   -1.0090    6.1378 H         1 <0>         0.1008 
      46 H16       -1.4092   -1.4950    4.4636 H         1 <0>         0.0999 
      47 H17        2.7690   -0.6329    3.3951 H         1 <0>         0.1557 
      48 H18        5.1663    0.1876    3.2363 H         1 <0>         0.1929 
      49 H19        1.7131    2.2300    7.1552 H         1 <0>         0.4317 
      50 H20        4.7314    5.0914    8.9200 H         1 <0>         0.1287 
      51 H21        3.9472    6.3390   10.9053 H         1 <0>         0.1326 
      52 H22        0.1343    4.4231   10.6211 H         1 <0>         0.1342 
      53 H23        0.8456    3.2688    8.5921 H         1 <0>         0.1410 
      54 H24        0.4953    6.3280   12.1437 H         1 <0>         0.0777 
      55 H25        2.0903    7.1044   12.2484 H         1 <0>         0.0771 
      56 H26        2.9787    5.1337   13.4410 H         1 <0>         0.0623 
      57 H27        1.3928    4.3408   13.3223 H         1 <0>         0.0572 
      58 H28        1.5797    5.8121   14.3014 H         1 <0>         0.0578 
@<TRIPOS>BOND
       1        1        2 1        
       2        1       31 1        
       3        1       32 1        
       4        1       33 1        
       5        2        3 1        
       6        2       34 1        
       7        2       35 1        
       8        3        4 1        
       9        3       36 1        
      10        3       37 1        
      11        4        5 1        
      12        4       38 1        
      13        4       39 1        
      14        5        6 1        
      15        6        7 1        
      16        6       40 1        
      17        6       41 1        
      18        7        8 1        
      19        7       42 1        
      20        7       43 1        
      21        8        9 am       
      22        8       44 1        
      23        9       10 2        
      24        9       11 1        
      25       11       12 1        
      26       11       45 1        
      27       11       46 1        
      28       12       13 1        
      29       13       14 2        
      30       13       15 1        
      31       15       19 2        
      32       15       16 1        
      33       16       17 2        
      34       16       47 1        
      35       17       18 1        
      36       17       48 1        
      37       18       19 1        
      38       19       20 1        
      39       20       21 am       
      40       20       49 1        
      41       21       22 2        
      42       21       23 1        
      43       23       28 ar       
      44       23       24 ar       
      45       24       25 ar       
      46       24       50 1        
      47       25       26 ar       
      48       25       51 1        
      49       26       27 ar       
      50       26       29 1        
      51       27       28 ar       
      52       27       52 1        
      53       28       53 1        
      54       29       30 1        
      55       29       54 1        
      56       29       55 1        
      57       30       56 1        
      58       30       57 1        
      59       30       58 1        

