#        scan_R01_S0001_C0000_L00001_S0001_C0000_G0010_E0001.mol2
#        Mon Jun 19 14:40:57 2017
#        Descriptor:     18    26    36     3     1     4
#        Energy - RMSD - RMSD MassCentre:     -44.5181    999.9999    999.9999
#        Receptor:       1  Surface Point:     1  Conformer:     0
#        Ligand:         1  Surface Point:     1  Conformer:     0
#        BUDE Formal Charge: 0
#        ATOM Count: 27
#        Heavy ATOM Count: 17
@<TRIPOS>MOLECULE
pdb1gcz_ligA.pdb_scan_R01_S0001_C0000_L00001_S0001_C0000_G0010_E0001
27 28 1 0 0
SMALL
GASTEIGER
@<TRIPOS>ATOM
       1 C3        -0.6294    2.7557   -1.0455 C.3       1 YZ9900      0.0513 
       2 C11        0.5117    2.3595   -0.1529 C.3       1 YZ9900      0.2089 
       3 O1        -1.6766    1.2115    2.2133 O.2       1 YZ9900     -0.2447 
       4 O2         0.0433    2.3046    1.2536 O.3       1 YZ9900     -0.4453 
       5 C6         0.0576   -3.7413    2.3176 C.ar      1 YZ9900      0.0063 
       6 C5        -0.3103   -1.2489    2.2052 C.ar      1 YZ9900      0.0160 
       7 C4         2.9174   -3.2628    2.7898 C.ar      1 YZ9900      0.0796 
       8 O3         2.4525   -0.9054    2.6659 O.2       1 YZ9900     -0.4208 
       9 C2         0.5881   -2.4310    2.3847 C.ar      1 YZ9900      0.0353 
      10 C1         1.9820   -2.2185    2.6158 C.ar      1 YZ9900      0.1519 
      11 C7         1.6967    0.1452    2.4408 C.ar      1 YZ9900      0.3521 
      12 C12       -0.5321    1.2320    1.8760 C.2       1 YZ9900      0.3476 
      13 O4         3.1263   -5.6407    2.8564 O.3       1 YZ9900     -0.2865 
      14 O5         2.1915    1.2005    2.4556 O.2       1 YZ9900     -0.2442 
      15 C10        0.9606   -4.8313    2.4844 C.ar      1 YZ9900      0.0422 
      16 C9         0.2604   -0.0054    2.1735 C.ar      1 YZ9900      0.1515 
      17 C8         2.3306   -4.5673    2.7103 C.ar      1 YZ9900      0.1988 
      18 H31       -1.4414    2.0363   -0.9390 H         1 YZ9900      0.0000 
      19 H32       -0.9835    3.7473   -0.7635 H         1 YZ9900      0.0000 
      20 H33       -0.2915    2.7716   -2.0816 H         1 YZ9900      0.0000 
      21 H112       1.3131    3.0932   -0.2405 H         1 YZ9900      0.0000 
      22 H113       0.8827    1.3788   -0.4509 H         1 YZ9900      0.0000 
      23 H6        -0.9952   -3.9095    2.1460 H         1 YZ9900      0.0000 
      24 H5        -1.3782   -1.3729    2.1037 H         1 YZ9900      0.0000 
      25 H4         3.9696   -3.0945    2.9653 H         1 YZ9900      0.0000 
      26 HO4        3.2279   -6.0819    2.0099 H         1 YZ9900      0.0000 
      27 H10        0.6016   -5.8489    2.4385 H         1 YZ9900      0.0000 
@<TRIPOS>BOND
       1       13       17 1        
       2        7       17 ar       
       3        7       10 ar       
       4        8       10 ar       
       5        8       11 ar       
       6       14       11 2        
       7       17       15 ar       
       8       10        9 ar       
       9       11       16 ar       
      10        2        4 1        
      11        2        1 1        
      12       15        5 ar       
      13        9        5 ar       
      14        9        6 ar       
      15       16        6 ar       
      16       16       12 1        
      17        4       12 1        
      18       12        3 2        
      19       18        1 1        
      20       19        1 1        
      21       20        1 1        
      22       21        2 1        
      23       22        2 1        
      24       23        5 1        
      25       24        6 1        
      26       25        7 1        
      27       26       13 1        
      28       27       15 1        
@<TRIPOS>SUBSTRUCTURE
 1 YZ9900 10 RESIDUE 4 A YZ9900 0 ROOT

