#        scan_R01_S0001_C0000_L00001_S0001_C0002_G0010_E0001.mol2
#        Mon Jun 19 14:12:30 2017
#        Descriptor:      8     1     8     3     1     5
#        Energy - RMSD - RMSD MassCentre:     -49.4676    999.9999    999.9999
#        Receptor:       1  Surface Point:     1  Conformer:     0
#        Ligand:         1  Surface Point:     1  Conformer:     2
#        BUDE Formal Charge: 0
#        ATOM Count: 27
#        Heavy ATOM Count: 17
@<TRIPOS>MOLECULE
pdb1gcz_ligA.pdb_scan_R01_S0001_C0000_L00001_S0001_C0002_G0010_E0001
27 28 1 0 0
SMALL
GASTEIGER
@<TRIPOS>ATOM
       1 C3         0.5882   -8.3066    1.9564 C.3       1 YZ9900      0.0513 
       2 C11        1.7711   -7.4060    2.3002 C.3       1 YZ9900      0.2089 
       3 O1         3.3808   -5.4078    2.8728 O.2       1 YZ9900     -0.2447 
       4 O2         1.3245   -6.0512    2.4002 O.3       1 YZ9900     -0.4453 
       5 C6         3.1843   -0.3065    3.5278 C.ar      1 YZ9900      0.0063 
       6 C5         2.7102   -2.7290    3.1104 C.ar      1 YZ9900      0.0160 
       7 C4         0.5048    0.3333    3.1124 C.ar      1 YZ9900      0.0796 
       8 O3        -0.0091   -1.9854    2.7016 O.2       1 YZ9900     -0.4208 
       9 C2         2.2708   -1.3199    3.2192 C.ar      1 YZ9900      0.0353 
      10 C1         0.9243   -0.9985    3.0104 C.ar      1 YZ9900      0.1519 
      11 C7         0.4095   -3.3102    2.6004 C.ar      1 YZ9900      0.3521 
      12 C12        2.2382   -5.1037    2.6999 C.2       1 YZ9900      0.3476 
      13 O4         0.9569    2.6399    3.5100 O.3       1 YZ9900     -0.2865 
      14 O5        -0.4240   -4.1588    2.3291 O.2       1 YZ9900     -0.2442 
      15 C10        2.7594    1.0237    3.6286 C.ar      1 YZ9900      0.0422 
      16 C9         1.8244   -3.6874    2.8144 C.ar      1 YZ9900      0.1515 
      17 C8         1.4145    1.3516    3.4210 C.ar      1 YZ9900      0.1988 
      18 H31        0.1678   -8.0026    0.9999 H         1 YZ9900      0.0000 
      19 H32        0.9256   -9.3390    1.8934 H         1 YZ9900      0.0000 
      20 H33       -0.1706   -8.2190    2.7311 H         1 YZ9900      0.0000 
      21 H112       2.5247   -7.4819    1.5191 H         1 YZ9900      0.0000 
      22 H113       2.2003   -7.7168    3.2504 H         1 YZ9900      0.0000 
      23 H6         4.2246   -0.5469    3.6902 H         1 YZ9900      0.0000 
      24 H5         3.7511   -2.9666    3.2733 H         1 YZ9900      0.0000 
      25 H4        -0.5350    0.5763    2.9506 H         1 YZ9900      0.0000 
      26 HO4        0.0068    2.6849    3.3198 H         1 YZ9900      0.0000 
      27 H10        3.4848    1.7872    3.8680 H         1 YZ9900      0.0000 
@<TRIPOS>BOND
       1       13       17 1        
       2        7       17 ar       
       3        7       10 ar       
       4        8       10 ar       
       5        8       11 ar       
       6       14       11 2        
       7       17       15 ar       
       8       10        9 ar       
       9       11       16 ar       
      10        2        4 1        
      11        2        1 1        
      12       15        5 ar       
      13        9        5 ar       
      14        9        6 ar       
      15       16        6 ar       
      16       16       12 1        
      17        4       12 1        
      18       12        3 2        
      19       18        1 1        
      20       19        1 1        
      21       20        1 1        
      22       21        2 1        
      23       22        2 1        
      24       23        5 1        
      25       24        6 1        
      26       25        7 1        
      27       26       13 1        
      28       27       15 1        
@<TRIPOS>SUBSTRUCTURE
 1 YZ9900 10 RESIDUE 4 A YZ9900 0 ROOT

