#        1GCZ_R01_S0001_C0000_L00003_S0001_C0050_G0010_E0001.mol2
#        Tue Jun  6 14:05:08 2017
#        Descriptor:     21    24    26     8    10    14
#        Energy - RMSD - RMSD MassCentre:     -64.7798    999.9999    999.9999
#        Receptor:       1  Surface Point:     1  Conformer:     0
#        Ligand:         3  Surface Point:     1  Conformer:    50
#        BUDE Formal Charge: 0
#        ATOM Count: 58
#        Heavy ATOM Count: 30
@<TRIPOS>MOLECULE
ZINC61580633_1GCZ_R01_S0001_C0000_L00003_S0001_C0050_G0010_E0001
 58 59 0 0 0
SMALL
USER_CHARGES
@<TRIPOS>ATOM
       1 C1        -2.1835   -1.1375    4.9603 C.3       1 <0>        -0.1532 
       2 C2        -1.6676   -1.5624    6.3321 C.3       1 <0>        -0.1224 
       3 C3        -1.6554   -0.3541    7.2674 C.3       1 <0>        -0.1198 
       4 C4        -3.0769    0.1858    7.4190 C.3       1 <0>         0.0610 
       5 O1        -3.0655    1.3165    8.2943 O.3       1 <0>        -0.3878 
       6 C5        -2.2510    2.3770    7.7873 C.3       1 <0>         0.0487 
       7 C6        -2.2800    3.5517    8.7639 C.3       1 <0>         0.1244 
       8 N1        -1.4427    4.6418    8.2429 N.am      1 <0>        -0.7216 
       9 C7        -1.3189    5.7724    8.9323 C.2       1 <0>         0.5161 
      10 O2        -1.9043    5.9065   10.0055 O.2       1 <0>        -0.5151 
      11 C8        -0.4588    6.8922    8.3969 C.3       1 <0>         0.0490 
      12 O3         0.9170    6.5072    8.4598 O.3       1 <0>        -0.3194 
      13 C9         1.3123    5.4472    7.7232 C.2       1 <0>         0.5417 
      14 O4         0.5049    4.8491    7.0312 O.2       1 <0>        -0.5337 
      15 C10        2.7258    5.0104    7.7550 C.2       1 <0>        -0.2559 
      16 C11        3.7876    5.6708    8.5470 C.2       1 <0>        -0.0791 
      17 C12        4.9779    5.0875    8.3882 C.2       1 <0>        -0.2585 
      18 S1         4.9183    3.7035    7.2867 S.3       1 <0>         0.3028 
      19 C13        3.1845    3.9678    7.0492 C.2       1 <0>         0.0893 
      20 N2         2.3710    3.2217    6.2378 N.am      1 <0>        -0.6099 
      21 C14        2.8712    2.1953    5.5558 C.2       1 <0>         0.5551 
      22 O5         4.0650    1.9156    5.6538 O.2       1 <0>        -0.4939 
      23 C15        1.9911    1.3902    4.6797 C.ar      1 <0>        -0.1466 
      24 C16        2.5600    0.3207    3.9779 C.ar      1 <0>        -0.0772 
      25 C17        1.7953   -0.4311    3.0780 C.ar      1 <0>        -0.1241 
      26 C18        0.4487   -0.1206    2.8555 C.ar      1 <0>        -0.0446 
      27 C19       -0.1364    0.9141    3.5950 C.ar      1 <0>        -0.1261 
      28 C20        0.6243    1.6448    4.5155 C.ar      1 <0>        -0.0460 
      29 C21       -0.3423   -0.9039    1.8351 C.3       1 <0>        -0.0928 
      30 C22       -0.2284   -0.2243    0.4736 C.3       1 <0>        -0.1485 
      31 H1        -1.5250   -0.3773    4.5453 H         1 <0>         0.0567 
      32 H2        -3.1881   -0.7320    5.0610 H         1 <0>         0.0554 
      33 H3        -2.2048   -2.0005    4.2983 H         1 <0>         0.0557 
      34 H4        -2.3183   -2.3316    6.7427 H         1 <0>         0.0632 
      35 H5        -0.6576   -1.9551    6.2348 H         1 <0>         0.0635 
      36 H6        -1.2760   -0.6530    8.2421 H         1 <0>         0.0711 
      37 H7        -1.0161    0.4214    6.8507 H         1 <0>         0.0704 
      38 H8        -3.4573    0.4859    6.4448 H         1 <0>         0.0498 
      39 H9        -3.7170   -0.5887    7.8362 H         1 <0>         0.0505 
      40 H10       -2.6342    2.6997    6.8215 H         1 <0>         0.0584 
      41 H11       -1.2274    2.0262    7.6732 H         1 <0>         0.0702 
      42 H12       -1.8961    3.2306    9.7299 H         1 <0>         0.0872 
      43 H13       -3.3030    3.9039    8.8782 H         1 <0>         0.0805 
      44 H14       -0.9614    4.5328    7.3616 H         1 <0>         0.4058 
      45 H15       -0.7305    7.0968    7.3635 H         1 <0>         0.1008 
      46 H16       -0.6121    7.7866    8.9969 H         1 <0>         0.0999 
      47 H17        3.5956    6.5208    9.1848 H         1 <0>         0.1557 
      48 H18        5.8686    5.4276    8.8953 H         1 <0>         0.1929 
      49 H19        1.3908    3.4513    6.1574 H         1 <0>         0.4317 
      50 H20        3.6007    0.0739    4.1271 H         1 <0>         0.1287 
      51 H21        2.2434   -1.2578    2.5469 H         1 <0>         0.1326 
      52 H22       -1.1829    1.1376    3.4484 H         1 <0>         0.1342 
      53 H23        0.1055    2.3908    5.0992 H         1 <0>         0.1410 
      54 H24       -1.3870   -0.9399    2.1369 H         1 <0>         0.0777 
      55 H25        0.0521   -1.9158    1.7703 H         1 <0>         0.0771 
      56 H26        0.8153   -0.2001    0.1673 H         1 <0>         0.0623 
      57 H27       -0.6101    0.7922    0.5433 H         1 <0>         0.0572 
      58 H28       -0.8092   -0.7812   -0.2586 H         1 <0>         0.0578 
@<TRIPOS>BOND
       1        1        2 1        
       2        1       31 1        
       3        1       32 1        
       4        1       33 1        
       5        2        3 1        
       6        2       34 1        
       7        2       35 1        
       8        3        4 1        
       9        3       36 1        
      10        3       37 1        
      11        4        5 1        
      12        4       38 1        
      13        4       39 1        
      14        5        6 1        
      15        6        7 1        
      16        6       40 1        
      17        6       41 1        
      18        7        8 1        
      19        7       42 1        
      20        7       43 1        
      21        8        9 am       
      22        8       44 1        
      23        9       10 2        
      24        9       11 1        
      25       11       12 1        
      26       11       45 1        
      27       11       46 1        
      28       12       13 1        
      29       13       14 2        
      30       13       15 1        
      31       15       19 2        
      32       15       16 1        
      33       16       17 2        
      34       16       47 1        
      35       17       18 1        
      36       17       48 1        
      37       18       19 1        
      38       19       20 1        
      39       20       21 am       
      40       20       49 1        
      41       21       22 2        
      42       21       23 1        
      43       23       28 ar       
      44       23       24 ar       
      45       24       25 ar       
      46       24       50 1        
      47       25       26 ar       
      48       25       51 1        
      49       26       27 ar       
      50       26       29 1        
      51       27       28 ar       
      52       27       52 1        
      53       28       53 1        
      54       29       30 1        
      55       29       54 1        
      56       29       55 1        
      57       30       56 1        
      58       30       57 1        
      59       30       58 1        

