#        scan_R01_S0002_C0000_L00001_S0001_C0000_G0010_E0001.mol2
#        Mon Jun 19 14:40:58 2017
#        Descriptor:     26     2    10     3     1     8
#        Energy - RMSD - RMSD MassCentre:     -36.2787    999.9999    999.9999
#        Receptor:       1  Surface Point:     2  Conformer:     0
#        Ligand:         1  Surface Point:     1  Conformer:     0
#        BUDE Formal Charge: 0
#        ATOM Count: 27
#        Heavy ATOM Count: 17
@<TRIPOS>MOLECULE
pdb1gcz_ligA.pdb_scan_R01_S0002_C0000_L00001_S0001_C0000_G0010_E0001
27 28 1 0 0
SMALL
GASTEIGER
@<TRIPOS>ATOM
       1 C3        -1.0126    0.5573   10.4226 C.3       1 YZ9900      0.0513 
       2 C11        0.1573   -0.1872    9.8456 C.3       1 YZ9900      0.2089 
       3 O1        -1.9104   -1.8653    7.6975 O.2       1 YZ9900     -0.2447 
       4 O2        -0.3154   -1.4533    9.2338 O.3       1 YZ9900     -0.4453 
       5 C6         0.3691   -0.2566    3.2517 C.ar      1 YZ9900      0.0063 
       6 C5        -0.2758   -1.0356    5.5620 C.ar      1 YZ9900      0.0160 
       7 C4         3.1522   -1.0121    3.8118 C.ar      1 YZ9900      0.0796 
       8 O3         2.4262   -1.7266    5.9915 O.2       1 YZ9900     -0.4208 
       9 C2         0.7481   -0.8197    4.4935 C.ar      1 YZ9900      0.0353 
      10 C1         2.1069   -1.1813    4.7470 C.ar      1 YZ9900      0.1519 
      11 C7         1.5592   -1.8595    6.9694 C.ar      1 YZ9900      0.3521 
      12 C12       -0.7723   -1.6158    7.9556 C.2       1 YZ9900      0.3476 
      13 O4         3.6267   -0.2240    1.6081 O.3       1 YZ9900     -0.2865 
      14 O5         1.9320   -2.2798    7.9907 O.2       1 YZ9900     -0.2442 
      15 C10        1.3874   -0.0626    2.2736 C.ar      1 YZ9900      0.0422 
      16 C9         0.1516   -1.4845    6.7821 C.ar      1 YZ9900      0.1515 
      17 C8         2.7167   -0.4368    2.5742 C.ar      1 YZ9900      0.1988 
      18 H31       -1.7395    0.7590    9.6357 H         1 YZ9900      0.0000 
      19 H32       -1.4787   -0.0463   11.2014 H         1 YZ9900      0.0000 
      20 H33       -0.6688    1.4992   10.8499 H         1 YZ9900      0.0000 
      21 H112       0.8718   -0.4111   10.6378 H         1 YZ9900      0.0000 
      22 H113       0.6391    0.4266    9.0845 H         1 YZ9900      0.0000 
      23 H6        -0.6564    0.0165    3.0521 H         1 YZ9900      0.0000 
      24 H5        -1.3220   -0.8429    5.3761 H         1 YZ9900      0.0000 
      25 H4         4.1771   -1.2888    4.0101 H         1 YZ9900      0.0000 
      26 HO4        3.7853    0.7186    1.5192 H         1 YZ9900      0.0000 
      27 H10        1.1456    0.3663    1.3122 H         1 YZ9900      0.0000 
@<TRIPOS>BOND
       1       13       17 1        
       2        7       17 ar       
       3        7       10 ar       
       4        8       10 ar       
       5        8       11 ar       
       6       14       11 2        
       7       17       15 ar       
       8       10        9 ar       
       9       11       16 ar       
      10        2        4 1        
      11        2        1 1        
      12       15        5 ar       
      13        9        5 ar       
      14        9        6 ar       
      15       16        6 ar       
      16       16       12 1        
      17        4       12 1        
      18       12        3 2        
      19       18        1 1        
      20       19        1 1        
      21       20        1 1        
      22       21        2 1        
      23       22        2 1        
      24       23        5 1        
      25       24        6 1        
      26       25        7 1        
      27       26       13 1        
      28       27       15 1        
@<TRIPOS>SUBSTRUCTURE
 1 YZ9900 10 RESIDUE 4 A YZ9900 0 ROOT

