#        scan_R01_S0002_C0000_L00001_S0001_C0003_G0010_E0001.mol2
#        Mon Jun 19 14:12:32 2017
#        Descriptor:      9    36    13     3     1     6
#        Energy - RMSD - RMSD MassCentre:     -43.2728    999.9999    999.9999
#        Receptor:       1  Surface Point:     2  Conformer:     0
#        Ligand:         1  Surface Point:     1  Conformer:     3
#        BUDE Formal Charge: 0
#        ATOM Count: 27
#        Heavy ATOM Count: 17
@<TRIPOS>MOLECULE
pdb1gcz_ligA.pdb_scan_R01_S0002_C0000_L00001_S0001_C0003_G0010_E0001
27 28 1 0 0
SMALL
GASTEIGER
@<TRIPOS>ATOM
       1 C3         7.1703   -4.0770    2.7833 C.3       1 YZ9900      0.0513 
       2 C11        6.4500   -4.5237    4.0522 C.3       1 YZ9900      0.2089 
       3 O1         5.9206   -1.9489    4.0082 O.2       1 YZ9900     -0.2447 
       4 O2         5.1180   -4.0032    4.0515 O.3       1 YZ9900     -0.4453 
       5 C6         1.8452    1.1945    3.9776 C.ar      1 YZ9900      0.0063 
       6 C5         3.4216   -0.7502    4.0029 C.ar      1 YZ9900      0.0160 
       7 C4        -0.3454   -0.5260    4.0241 C.ar      1 YZ9900      0.0796 
       8 O3         1.1253   -2.4353    4.0494 O.2       1 YZ9900     -0.4208 
       9 C2         2.0522   -0.1888    4.0018 C.ar      1 YZ9900      0.0353 
      10 C1         0.9515   -1.0534    4.0251 C.ar      1 YZ9900      0.1519 
      11 C7         2.4162   -2.9589    4.0504 C.ar      1 YZ9900      0.3521 
      12 C12        4.9622   -2.6623    4.0278 C.2       1 YZ9900      0.3476 
      13 O4        -1.8460    1.3262    4.0000 O.3       1 YZ9900     -0.2865 
      14 O5         2.5462   -4.1718    4.0719 O.2       1 YZ9900     -0.2442 
      15 C10        0.5462    1.7165    3.9767 C.ar      1 YZ9900      0.0422 
      16 C9         3.6035   -2.0758    4.0261 C.ar      1 YZ9900      0.1515 
      17 C8        -0.5587    0.8573    4.0000 C.ar      1 YZ9900      0.1988 
      18 H31        7.2168   -2.9902    2.7570 H         1 YZ9900      0.0000 
      19 H32        8.1793   -4.4841    2.7774 H         1 YZ9900      0.0000 
      20 H33        6.6276   -4.4386    1.9125 H         1 YZ9900      0.0000 
      21 H112       6.9839   -4.1507    4.9236 H         1 YZ9900      0.0000 
      22 H113       6.4138   -5.6105    4.0859 H         1 YZ9900      0.0000 
      23 H6         2.6896    1.8677    3.9595 H         1 YZ9900      0.0000 
      24 H5         4.2641   -0.0748    3.9848 H         1 YZ9900      0.0000 
      25 H4        -1.1915   -1.1971    4.0422 H         1 YZ9900      0.0000 
      26 HO4       -2.4823    0.5940    4.0000 H         1 YZ9900      0.0000 
      27 H10        0.4137    2.7882    3.9578 H         1 YZ9900      0.0000 
@<TRIPOS>BOND
       1       13       17 1        
       2        7       17 ar       
       3        7       10 ar       
       4        8       10 ar       
       5        8       11 ar       
       6       14       11 2        
       7       17       15 ar       
       8       10        9 ar       
       9       11       16 ar       
      10        2        4 1        
      11        2        1 1        
      12       15        5 ar       
      13        9        5 ar       
      14        9        6 ar       
      15       16        6 ar       
      16       16       12 1        
      17        4       12 1        
      18       12        3 2        
      19       18        1 1        
      20       19        1 1        
      21       20        1 1        
      22       21        2 1        
      23       22        2 1        
      24       23        5 1        
      25       24        6 1        
      26       25        7 1        
      27       26       13 1        
      28       27       15 1        
@<TRIPOS>SUBSTRUCTURE
 1 YZ9900 10 RESIDUE 4 A YZ9900 0 ROOT

