#        1GCZ_R01_S0001_C0000_L00004_S0001_C0000_G0010_E0001.mol2
#        Tue Jun  6 09:55:19 2017
#        Descriptor:     22     3     9     9     8    12
#        Energy - RMSD - RMSD MassCentre:     -71.8248    999.9999    999.9999
#        Receptor:       1  Surface Point:     1  Conformer:     0
#        Ligand:         4  Surface Point:     1  Conformer:     0
#        BUDE Formal Charge: 0
#        ATOM Count: 46
#        Heavy ATOM Count: 28
@<TRIPOS>MOLECULE
ZINC61563277_1GCZ_R01_S0001_C0000_L00004_S0001_C0000_G0010_E0001
 46 49 0 0 0
SMALL
USER_CHARGES
@<TRIPOS>ATOM
       1 C1         4.2464    0.6798    7.4288 C.3       1 <0>        -0.1051 
       2 C2         3.0974    0.2101    8.2834 C.2       1 <0>         0.1324 
       3 C3         3.2207   -0.4535    9.4442 C.2       1 <0>        -0.1714 
       4 C4         1.8648   -0.7129    9.9352 C.ar      1 <0>        -0.0773 
       5 C5         1.3475   -1.3493   11.0653 C.ar      1 <0>        -0.0675 
       6 C6        -0.0053   -1.4283   11.2395 C.ar      1 <0>        -0.1361 
       7 C7        -0.8703   -0.8811   10.3015 C.ar      1 <0>        -0.0920 
       8 C8        -0.3815   -0.2490    9.1796 C.ar      1 <0>        -0.1265 
       9 C9         0.9927   -0.1565    8.9820 C.ar      1 <0>         0.1084 
      10 N1         1.7727    0.4016    7.9942 N.pl3     1 <0>        -0.4675 
      11 C10        1.2615    1.0936    6.8085 C.3       1 <0>         0.1242 
      12 C11        1.0621    0.0994    5.6936 C.2       1 <0>         0.4463 
      13 O1         1.3205   -1.0673    5.8713 O.2       1 <0>        -0.4704 
      14 O2         0.5976    0.5102    4.5031 O.3       1 <0>        -0.3437 
      15 C12        0.4329   -0.4861    3.4921 C.3       1 <0>         0.1567 
      16 C13       -0.0935    0.1564    2.2347 C.2       1 <0>         0.2874 
      17 N2         0.6296    0.6469    1.2666 N.2       1 <0>        -0.5106 
      18 C14       -0.1613    1.1390    0.3065 C.2       1 <0>         0.2609 
      19 N3        -1.4041    0.9663    0.6542 N.2       1 <0>        -0.3200 
      20 O3        -1.3842    0.3166    1.9166 O.3       1 <0>        -0.0928 
      21 C15        0.3094    1.7878   -0.9696 C.3       1 <0>         0.0037 
      22 C16        0.4621    0.7382   -2.0403 C.ar      1 <0>        -0.0973 
      23 C17        1.6677    0.0801   -2.1959 C.ar      1 <0>        -0.0995 
      24 C18        1.8078   -0.8827   -3.1779 C.ar      1 <0>        -0.1207 
      25 C19        0.7422   -1.1875   -4.0039 C.ar      1 <0>        -0.1122 
      26 C20       -0.4637   -0.5299   -3.8477 C.ar      1 <0>        -0.1201 
      27 C21       -0.6051    0.4297   -2.8629 C.ar      1 <0>        -0.1046 
      28 Br1        4.8375   -0.9575   10.2856 Br        1 <0>        -0.0155 
      29 H1         4.5404    1.6837    7.7352 H         1 <0>         0.0903 
      30 H2         5.0907    0.0011    7.5501 H         1 <0>         0.0953 
      31 H3         3.9393    0.6944    6.3831 H         1 <0>         0.0712 
      32 H4         2.0144   -1.7779   11.7988 H         1 <0>         0.1274 
      33 H5        -0.4049   -1.9206   12.1138 H         1 <0>         0.1276 
      34 H6        -1.9372   -0.9522   10.4529 H         1 <0>         0.1296 
      35 H7        -1.0625    0.1737    8.4559 H         1 <0>         0.1206 
      36 H8         0.3095    1.5680    7.0468 H         1 <0>         0.1394 
      37 H9         1.9773    1.8533    6.4943 H         1 <0>         0.1404 
      38 H10        1.3945   -0.9558    3.2850 H         1 <0>         0.1240 
      39 H11       -0.2733   -1.2411    3.8375 H         1 <0>         0.1139 
      40 H12       -0.4209    2.5306   -1.2905 H         1 <0>         0.1085 
      41 H13        1.2699    2.2736   -0.7974 H         1 <0>         0.1144 
      42 H14        2.5002    0.3182   -1.5505 H         1 <0>         0.1277 
      43 H15        2.7499   -1.3965   -3.3001 H         1 <0>         0.1259 
      44 H16        0.8518   -1.9392   -4.7718 H         1 <0>         0.1247 
      45 H17       -1.2962   -0.7679   -4.4933 H         1 <0>         0.1255 
      46 H18       -1.5483    0.9408   -2.7384 H         1 <0>         0.1245 
@<TRIPOS>BOND
       1        1        2 1        
       2        1       29 1        
       3        1       30 1        
       4        1       31 1        
       5        2       10 1        
       6        2        3 2        
       7        3        4 1        
       8        3       28 1        
       9        4        9 ar       
      10        4        5 ar       
      11        5        6 ar       
      12        5       32 1        
      13        6        7 ar       
      14        6       33 1        
      15        7        8 ar       
      16        7       34 1        
      17        8        9 ar       
      18        8       35 1        
      19        9       10 1        
      20       10       11 1        
      21       11       12 1        
      22       11       36 1        
      23       11       37 1        
      24       12       13 2        
      25       12       14 1        
      26       14       15 1        
      27       15       16 1        
      28       15       38 1        
      29       15       39 1        
      30       16       20 1        
      31       16       17 2        
      32       17       18 1        
      33       18       19 2        
      34       18       21 1        
      35       19       20 1        
      36       21       22 1        
      37       21       40 1        
      38       21       41 1        
      39       22       27 ar       
      40       22       23 ar       
      41       23       24 ar       
      42       23       42 1        
      43       24       25 ar       
      44       24       43 1        
      45       25       26 ar       
      46       25       44 1        
      47       26       27 ar       
      48       26       45 1        
      49       27       46 1        

