#        scan_R01_S0003_C0000_L00001_S0001_C0002_G0010_E0001.mol2
#        Mon Jun 19 14:12:34 2017
#        Descriptor:     16    12     3     2     2     3
#        Energy - RMSD - RMSD MassCentre:     -46.0146    999.9999    999.9999
#        Receptor:       1  Surface Point:     3  Conformer:     0
#        Ligand:         1  Surface Point:     1  Conformer:     2
#        BUDE Formal Charge: 0
#        ATOM Count: 27
#        Heavy ATOM Count: 17
@<TRIPOS>MOLECULE
pdb1gcz_ligA.pdb_scan_R01_S0003_C0000_L00001_S0001_C0002_G0010_E0001
27 28 1 0 0
SMALL
GASTEIGER
@<TRIPOS>ATOM
       1 C3         3.9748    1.8555   -4.9501 C.3       1 YZ9900      0.0513 
       2 C11        4.3695    1.7118   -3.4831 C.3       1 YZ9900      0.2089 
       3 O1         4.4531    1.3143   -0.8856 O.2       1 YZ9900     -0.2447 
       4 O2         3.2255    1.3229   -2.7184 O.3       1 YZ9900     -0.4453 
       5 C6         1.3050   -0.0351    2.9562 C.ar      1 YZ9900      0.0063 
       6 C5         2.3570    0.5616    0.7642 C.ar      1 YZ9900      0.0160 
       7 C4        -1.1624   -0.4105    1.7182 C.ar      1 YZ9900      0.0796 
       8 O3        -0.2024    0.1560   -0.4188 O.2       1 YZ9900     -0.4208 
       9 C2         1.1868    0.1589    1.5759 C.ar      1 YZ9900      0.0353 
      10 C1        -0.0531   -0.0296    0.9537 C.ar      1 YZ9900      0.1519 
      11 C7         0.9021    0.5350   -1.1784 C.ar      1 YZ9900      0.3521 
      12 C12        3.3826    1.1460   -1.3892 C.2       1 YZ9900      0.3476 
      13 O4        -2.1636   -0.9786    3.8057 O.3       1 YZ9900     -0.2865 
      14 O5         0.7496    0.6922   -2.3786 O.2       1 YZ9900     -0.2442 
      15 C10        0.1924   -0.4159    3.7159 C.ar      1 YZ9900      0.0422 
      16 C9         2.2281    0.7435   -0.5553 C.ar      1 YZ9900      0.1515 
      17 C8        -1.0501   -0.6062    3.0998 C.ar      1 YZ9900      0.1988 
      18 H31        3.2095    2.6231   -5.0455 H         1 YZ9900      0.0000 
      19 H32        4.8481    2.1385   -5.5339 H         1 YZ9900      0.0000 
      20 H33        3.5857    0.9072   -5.3148 H         1 YZ9900      0.0000 
      21 H112       4.7457    2.6634   -3.1132 H         1 YZ9900      0.0000 
      22 H113       5.1437    0.9534   -3.3877 H         1 YZ9900      0.0000 
      23 H6         2.2583    0.1086    3.4430 H         1 YZ9900      0.0000 
      24 H5         3.3091    0.7046    1.2536 H         1 YZ9900      0.0000 
      25 H4        -2.1168   -0.5549    1.2337 H         1 YZ9900      0.0000 
      26 HO4       -2.9369   -1.0468    3.2241 H         1 YZ9900      0.0000 
      27 H10        0.3104   -0.5593    4.7798 H         1 YZ9900      0.0000 
@<TRIPOS>BOND
       1       13       17 1        
       2        7       17 ar       
       3        7       10 ar       
       4        8       10 ar       
       5        8       11 ar       
       6       14       11 2        
       7       17       15 ar       
       8       10        9 ar       
       9       11       16 ar       
      10        2        4 1        
      11        2        1 1        
      12       15        5 ar       
      13        9        5 ar       
      14        9        6 ar       
      15       16        6 ar       
      16       16       12 1        
      17        4       12 1        
      18       12        3 2        
      19       18        1 1        
      20       19        1 1        
      21       20        1 1        
      22       21        2 1        
      23       22        2 1        
      24       23        5 1        
      25       24        6 1        
      26       25        7 1        
      27       26       13 1        
      28       27       15 1        
@<TRIPOS>SUBSTRUCTURE
 1 YZ9900 10 RESIDUE 4 A YZ9900 0 ROOT

