#        scan_R01_S0003_C0000_L00001_S0001_C0003_G0010_E0001.mol2
#        Mon Jun 19 14:12:34 2017
#        Descriptor:     16     5    19     3     2     3
#        Energy - RMSD - RMSD MassCentre:     -46.6225    999.9999    999.9999
#        Receptor:       1  Surface Point:     3  Conformer:     0
#        Ligand:         1  Surface Point:     1  Conformer:     3
#        BUDE Formal Charge: 0
#        ATOM Count: 27
#        Heavy ATOM Count: 17
@<TRIPOS>MOLECULE
pdb1gcz_ligA.pdb_scan_R01_S0003_C0000_L00001_S0001_C0003_G0010_E0001
27 28 1 0 0
SMALL
GASTEIGER
@<TRIPOS>ATOM
       1 C3         2.7754    0.1068   -5.7718 C.3       1 YZ9900      0.0513 
       2 C11        3.4639    1.1476   -4.8935 C.3       1 YZ9900      0.2089 
       3 O1         1.0357    1.1114   -3.8864 O.2       1 YZ9900     -0.2447 
       4 O2         3.1963    0.8616   -3.5182 O.3       1 YZ9900     -0.4453 
       5 C6        -1.3036    0.2872    0.6235 C.ar      1 YZ9900      0.0063 
       6 C5         0.3159    0.5822   -1.2626 C.ar      1 YZ9900      0.0160 
       7 C4         0.7828   -0.2674    2.3844 C.ar      1 YZ9900      0.0796 
       8 O3         2.3868    0.0046    0.6061 O.2       1 YZ9900     -0.4208 
       9 C2         0.0150    0.2891    0.1565 C.ar      1 YZ9900      0.0353 
      10 C1         1.0635    0.0103    1.0413 C.ar      1 YZ9900      0.1519 
      11 C7         2.6648    0.2811   -0.7305 C.ar      1 YZ9900      0.3521 
      12 C12        1.9100    0.8700   -3.1083 C.2       1 YZ9900      0.3476 
      13 O4        -0.7598   -0.5482    4.1801 O.3       1 YZ9900     -0.2865 
      14 O5         3.8304    0.2710   -1.0908 O.2       1 YZ9900     -0.2442 
      15 C10       -1.5787    0.0088    1.9677 C.ar      1 YZ9900      0.0422 
      16 C9         1.5825    0.5801   -1.6945 C.ar      1 YZ9900      0.1515 
      17 C8        -0.5347   -0.2707    2.8575 C.ar      1 YZ9900      0.1988 
      18 H31        1.7008    0.1472   -5.6062 H         1 YZ9900      0.0000 
      19 H32        2.9900    0.3165   -6.8176 H         1 YZ9900      0.0000 
      20 H33        3.1454   -0.8840   -5.5167 H         1 YZ9900      0.0000 
      21 H112       3.0845    2.1375   -5.1379 H         1 YZ9900      0.0000 
      22 H113       4.5374    1.1168   -5.0674 H         1 YZ9900      0.0000 
      23 H6        -2.1176    0.5013   -0.0532 H         1 YZ9900      0.0000 
      24 H5        -0.5000    0.7960   -1.9373 H         1 YZ9900      0.0000 
      25 H4         1.5950   -0.4819    3.0633 H         1 YZ9900      0.0000 
      26 HO4        0.0724   -0.7342    4.6425 H         1 YZ9900      0.0000 
      27 H10       -2.6053    0.0137    2.3029 H         1 YZ9900      0.0000 
@<TRIPOS>BOND
       1       13       17 1        
       2        7       17 ar       
       3        7       10 ar       
       4        8       10 ar       
       5        8       11 ar       
       6       14       11 2        
       7       17       15 ar       
       8       10        9 ar       
       9       11       16 ar       
      10        2        4 1        
      11        2        1 1        
      12       15        5 ar       
      13        9        5 ar       
      14        9        6 ar       
      15       16        6 ar       
      16       16       12 1        
      17        4       12 1        
      18       12        3 2        
      19       18        1 1        
      20       19        1 1        
      21       20        1 1        
      22       21        2 1        
      23       22        2 1        
      24       23        5 1        
      25       24        6 1        
      26       25        7 1        
      27       26       13 1        
      28       27       15 1        
@<TRIPOS>SUBSTRUCTURE
 1 YZ9900 10 RESIDUE 4 A YZ9900 0 ROOT

