#        scan_R01_S0004_C0000_L00001_S0001_C0000_G0010_E0001.mol2
#        Mon Jun 19 14:12:35 2017
#        Descriptor:     15     7    10     3     2     4
#        Energy - RMSD - RMSD MassCentre:     -34.4137    999.9999    999.9999
#        Receptor:       1  Surface Point:     4  Conformer:     0
#        Ligand:         1  Surface Point:     1  Conformer:     0
#        BUDE Formal Charge: 0
#        ATOM Count: 27
#        Heavy ATOM Count: 17
@<TRIPOS>MOLECULE
pdb1gcz_ligA.pdb_scan_R01_S0004_C0000_L00001_S0001_C0000_G0010_E0001
27 28 1 0 0
SMALL
GASTEIGER
@<TRIPOS>ATOM
       1 C3        -2.3268    3.2341    4.1233 C.3       1 YZ9900      0.0513 
       2 C11       -2.2327    1.8870    3.4658 C.3       1 YZ9900      0.2089 
       3 O1        -0.1432    3.1508    1.0694 O.2       1 YZ9900     -0.2447 
       4 O2        -1.8562    2.0575    2.0410 O.3       1 YZ9900     -0.4453 
       5 C6         3.9157   -0.0331    2.0375 C.ar      1 YZ9900      0.0063 
       6 C5         1.6966    1.1086    1.6737 C.ar      1 YZ9900      0.0160 
       7 C4         2.5657   -2.6363    1.8618 C.ar      1 YZ9900      0.0796 
       8 O3         0.5039   -1.4442    1.5200 O.2       1 YZ9900     -0.4208 
       9 C2         2.5213   -0.1308    1.8160 C.ar      1 YZ9900      0.0353 
      10 C1         1.8828   -1.4063    1.7330 C.ar      1 YZ9900      0.1519 
      11 C7        -0.2512   -0.3708    1.4631 C.ar      1 YZ9900      0.3521 
      12 C12       -0.5866    2.1490    1.5426 C.2       1 YZ9900      0.3476 
      13 O4         4.7256   -3.5858    2.2303 O.3       1 YZ9900     -0.2865 
      14 O5        -1.4015   -0.5056    1.3318 O.2       1 YZ9900     -0.2442 
      15 C10        4.6513   -1.2458    2.1769 C.ar      1 YZ9900      0.0422 
      16 C9         0.3394    0.9701    1.5654 C.ar      1 YZ9900      0.1515 
      17 C8         3.9720   -2.4820    2.0872 C.ar      1 YZ9900      0.1988 
      18 H31       -1.3694    3.7484    4.0379 H         1 YZ9900      0.0000 
      19 H32       -3.1009    3.8242    3.6328 H         1 YZ9900      0.0000 
      20 H33       -2.5787    3.1076    5.1762 H         1 YZ9900      0.0000 
      21 H112      -3.1976    1.3838    3.5289 H         1 YZ9900      0.0000 
      22 H113      -1.4763    1.2873    3.9723 H         1 YZ9900      0.0000 
      23 H6         4.4055    0.9274    2.0985 H         1 YZ9900      0.0000 
      24 H5         2.1586    2.0846    1.6569 H         1 YZ9900      0.0000 
      25 H4         2.0764   -3.5969    1.7969 H         1 YZ9900      0.0000 
      26 HO4        5.0027   -3.6681    3.1457 H         1 YZ9900      0.0000 
      27 H10        5.7171   -1.2204    2.3496 H         1 YZ9900      0.0000 
@<TRIPOS>BOND
       1       13       17 1        
       2        7       17 ar       
       3        7       10 ar       
       4        8       10 ar       
       5        8       11 ar       
       6       14       11 2        
       7       17       15 ar       
       8       10        9 ar       
       9       11       16 ar       
      10        2        4 1        
      11        2        1 1        
      12       15        5 ar       
      13        9        5 ar       
      14        9        6 ar       
      15       16        6 ar       
      16       16       12 1        
      17        4       12 1        
      18       12        3 2        
      19       18        1 1        
      20       19        1 1        
      21       20        1 1        
      22       21        2 1        
      23       22        2 1        
      24       23        5 1        
      25       24        6 1        
      26       25        7 1        
      27       26       13 1        
      28       27       15 1        
@<TRIPOS>SUBSTRUCTURE
 1 YZ9900 10 RESIDUE 4 A YZ9900 0 ROOT

