#        scan_R01_S0004_C0000_L00001_S0001_C0002_G0010_E0001.mol2
#        Mon Jun 19 14:12:35 2017
#        Descriptor:      1     6    15     2     1     4
#        Energy - RMSD - RMSD MassCentre:     -34.2637    999.9999    999.9999
#        Receptor:       1  Surface Point:     4  Conformer:     0
#        Ligand:         1  Surface Point:     1  Conformer:     2
#        BUDE Formal Charge: 0
#        ATOM Count: 27
#        Heavy ATOM Count: 17
@<TRIPOS>MOLECULE
pdb1gcz_ligA.pdb_scan_R01_S0004_C0000_L00001_S0001_C0002_G0010_E0001
27 28 1 0 0
SMALL
GASTEIGER
@<TRIPOS>ATOM
       1 C3         3.8835   -3.1553   -3.9092 C.3       1 YZ9900      0.0513 
       2 C11        4.2433   -3.1263   -2.4265 C.3       1 YZ9900      0.2089 
       3 O1         4.2893   -2.8522    0.1878 O.2       1 YZ9900     -0.2447 
       4 O2         3.1342   -2.6226   -1.6775 O.3       1 YZ9900     -0.4453 
       5 C6         1.2142   -1.2629    3.9968 C.ar      1 YZ9900      0.0063 
       6 C5         2.2538   -1.9004    1.8104 C.ar      1 YZ9900      0.0160 
       7 C4        -1.1397   -0.5150    2.7080 C.ar      1 YZ9900      0.0796 
       8 O3        -0.1892   -1.1127    0.5753 O.2       1 YZ9900     -0.4208 
       9 C2         1.1189   -1.3819    2.6063 C.ar      1 YZ9900      0.0353 
      10 C1        -0.0639   -1.0060    1.9586 C.ar      1 YZ9900      0.1519 
      11 C7         0.8818   -1.6014   -0.1694 C.ar      1 YZ9900      0.3521 
      12 C12        3.2675   -2.5238   -0.3377 C.2       1 YZ9900      0.3476 
      13 O4        -2.1291    0.0919    4.7902 O.3       1 YZ9900     -0.2865 
      14 O5         0.7513   -1.6868   -1.3793 O.2       1 YZ9900     -0.2442 
      15 C10        0.1354   -0.7713    4.7414 C.ar      1 YZ9900      0.0422 
      16 C9         2.1475   -2.0083    0.4808 C.ar      1 YZ9900      0.1515 
      17 C8        -1.0501   -0.3938    4.0998 C.ar      1 YZ9900      0.1988 
      18 H31        3.6594   -2.1455   -4.2471 H         1 YZ9900      0.0000 
      19 H32        4.7225   -3.5509   -4.4776 H         1 YZ9900      0.0000 
      20 H33        3.0124   -3.7899   -4.0579 H         1 YZ9900      0.0000 
      21 H112       5.1059   -2.4807   -2.2745 H         1 YZ9900      0.0000 
      22 H113       4.4798   -4.1336   -2.0903 H         1 YZ9900      0.0000 
      23 H6         2.1236   -1.5509    4.5033 H         1 YZ9900      0.0000 
      24 H5         3.1620   -2.1877    2.3195 H         1 YZ9900      0.0000 
      25 H4        -2.0502   -0.2263    2.2038 H         1 YZ9900      0.0000 
      26 HO4       -2.8542    0.3184    4.1870 H         1 YZ9900      0.0000 
      27 H10        0.2347   -0.6893    5.8137 H         1 YZ9900      0.0000 
@<TRIPOS>BOND
       1       13       17 1        
       2        7       17 ar       
       3        7       10 ar       
       4        8       10 ar       
       5        8       11 ar       
       6       14       11 2        
       7       17       15 ar       
       8       10        9 ar       
       9       11       16 ar       
      10        2        4 1        
      11        2        1 1        
      12       15        5 ar       
      13        9        5 ar       
      14        9        6 ar       
      15       16        6 ar       
      16       16       12 1        
      17        4       12 1        
      18       12        3 2        
      19       18        1 1        
      20       19        1 1        
      21       20        1 1        
      22       21        2 1        
      23       22        2 1        
      24       23        5 1        
      25       24        6 1        
      26       25        7 1        
      27       26       13 1        
      28       27       15 1        
@<TRIPOS>SUBSTRUCTURE
 1 YZ9900 10 RESIDUE 4 A YZ9900 0 ROOT

