#        scan_R01_S0005_C0000_L00001_S0001_C0000_G0010_E0001.mol2
#        Mon Jun 19 14:41:03 2017
#        Descriptor:     13    36    12     1     1     6
#        Energy - RMSD - RMSD MassCentre:     -25.0890    999.9999    999.9999
#        Receptor:       1  Surface Point:     5  Conformer:     0
#        Ligand:         1  Surface Point:     1  Conformer:     0
#        BUDE Formal Charge: 0
#        ATOM Count: 27
#        Heavy ATOM Count: 17
@<TRIPOS>MOLECULE
pdb1gcz_ligA.pdb_scan_R01_S0005_C0000_L00001_S0001_C0000_G0010_E0001
27 28 1 0 0
SMALL
GASTEIGER
@<TRIPOS>ATOM
       1 C3        -4.0181    1.0475    0.4315 C.3       1 YZ9900      0.0513 
       2 C11       -3.9016   -0.1292    1.3577 C.3       1 YZ9900      0.2089 
       3 O1        -0.5851   -0.4664    0.5877 O.2       1 YZ9900     -0.2447 
       4 O2        -2.7511   -0.9704    0.9462 O.3       1 YZ9900     -0.4453 
       5 C6         1.2528    0.1285    5.4680 C.ar      1 YZ9900      0.0063 
       6 C5         0.0055   -0.3901    3.3383 C.ar      1 YZ9900      0.0160 
       7 C4        -0.3467   -1.9054    6.8590 C.ar      1 YZ9900      0.0796 
       8 O3        -1.4709   -2.3204    4.7727 O.2       1 YZ9900     -0.4208 
       9 C2         0.2636   -0.6253    4.7926 C.ar      1 YZ9900      0.0353 
      10 C1        -0.5038   -1.6107    5.4863 C.ar      1 YZ9900      0.1519 
      11 C7        -1.7644   -2.0823    3.5146 C.ar      1 YZ9900      0.3521 
      12 C12       -1.4499   -0.8115    1.3342 C.2       1 YZ9900      0.3476 
      13 O4         0.8991   -1.3037    8.8054 O.3       1 YZ9900     -0.2865 
      14 O5        -2.6231   -2.6941    3.0177 O.2       1 YZ9900     -0.2442 
      15 C10        1.4494   -0.1288    6.8559 C.ar      1 YZ9900      0.0422 
      16 C9        -1.0293   -1.0659    2.7505 C.ar      1 YZ9900      0.1515 
      17 C8         0.6636   -1.1141    7.4957 C.ar      1 YZ9900      0.1988 
      18 H31       -3.0929    1.6233    0.4566 H         1 YZ9900      0.0000 
      19 H32       -4.1981    0.6939   -0.5838 H         1 YZ9900      0.0000 
      20 H33       -4.8479    1.6788    0.7488 H         1 YZ9900      0.0000 
      21 H112      -4.8173   -0.7189    1.3127 H         1 YZ9900      0.0000 
      22 H113      -3.7469    0.2246    2.3771 H         1 YZ9900      0.0000 
      23 H6         1.8386    0.8729    4.9495 H         1 YZ9900      0.0000 
      24 H5         0.6179    0.2931    2.7686 H         1 YZ9900      0.0000 
      25 H4        -0.9299   -2.6526    7.3766 H         1 YZ9900      0.0000 
      26 HO4        0.5728   -0.5499    9.3021 H         1 YZ9900      0.0000 
      27 H10        2.1914    0.4237    7.4133 H         1 YZ9900      0.0000 
@<TRIPOS>BOND
       1       13       17 1        
       2        7       17 ar       
       3        7       10 ar       
       4        8       10 ar       
       5        8       11 ar       
       6       14       11 2        
       7       17       15 ar       
       8       10        9 ar       
       9       11       16 ar       
      10        2        4 1        
      11        2        1 1        
      12       15        5 ar       
      13        9        5 ar       
      14        9        6 ar       
      15       16        6 ar       
      16       16       12 1        
      17        4       12 1        
      18       12        3 2        
      19       18        1 1        
      20       19        1 1        
      21       20        1 1        
      22       21        2 1        
      23       22        2 1        
      24       23        5 1        
      25       24        6 1        
      26       25        7 1        
      27       26       13 1        
      28       27       15 1        
@<TRIPOS>SUBSTRUCTURE
 1 YZ9900 10 RESIDUE 4 A YZ9900 0 ROOT

