#        1GCZ_R01_S0001_C0000_L00004_S0001_C0000_G0010_E0001.mol2
#        Tue Jun  6 14:05:10 2017
#        Descriptor:     12    14    25    14     9    13
#        Energy - RMSD - RMSD MassCentre:     -65.6688    999.9999    999.9999
#        Receptor:       1  Surface Point:     1  Conformer:     0
#        Ligand:         4  Surface Point:     1  Conformer:     0
#        BUDE Formal Charge: 0
#        ATOM Count: 46
#        Heavy ATOM Count: 28
@<TRIPOS>MOLECULE
ZINC61563277_1GCZ_R01_S0001_C0000_L00004_S0001_C0000_G0010_E0001
 46 49 0 0 0
SMALL
USER_CHARGES
@<TRIPOS>ATOM
       1 C1        10.1690    3.2347    4.3810 C.3       1 <0>        -0.1051 
       2 C2        10.6032    2.2036    5.3907 C.2       1 <0>         0.1324 
       3 C3        11.8378    1.6831    5.4793 C.2       1 <0>        -0.1714 
       4 C4        11.8209    0.7270    6.5894 C.ar      1 <0>        -0.0773 
       5 C5        12.7787   -0.1129    7.1611 C.ar      1 <0>        -0.0675 
       6 C6        12.4389   -0.9079    8.2190 C.ar      1 <0>        -0.1361 
       7 C7        11.1483   -0.8878    8.7303 C.ar      1 <0>        -0.0920 
       8 C8        10.1878   -0.0670    8.1815 C.ar      1 <0>        -0.1265 
       9 C9        10.5118    0.7514    7.1039 C.ar      1 <0>         0.1084 
      10 N1         9.7987    1.6625    6.3578 N.pl3     1 <0>        -0.4675 
      11 C10        8.3881    1.9998    6.5649 C.3       1 <0>         0.1242 
      12 C11        7.5252    1.0789    5.7413 C.2       1 <0>         0.4463 
      13 O1         8.0360    0.2282    5.0520 O.2       1 <0>        -0.4704 
      14 O2         6.1891    1.2039    5.7733 O.3       1 <0>        -0.3437 
      15 C12        5.4332    0.2975    4.9678 C.3       1 <0>         0.1567 
      16 C13        3.9633    0.5864    5.1309 C.2       1 <0>         0.2874 
      17 N2         3.2608    1.4096    4.4031 N.2       1 <0>        -0.5106 
      18 C14        1.9903    1.4232    4.8218 C.2       1 <0>         0.2609 
      19 N3         1.8687    0.6042    5.8266 N.2       1 <0>        -0.3200 
      20 O3         3.1524    0.0378    6.0443 O.3       1 <0>        -0.0928 
      21 C15        0.8808    2.2520    4.2276 C.3       1 <0>         0.0037 
      22 C16        0.2033    1.4719    3.1305 C.ar      1 <0>        -0.0973 
      23 C17        0.6638    1.5652    1.8304 C.ar      1 <0>        -0.0995 
      24 C18        0.0424    0.8496    0.8241 C.ar      1 <0>        -0.1207 
      25 C19       -1.0391    0.0403    1.1179 C.ar      1 <0>        -0.1122 
      26 C20       -1.4990   -0.0537    2.4182 C.ar      1 <0>        -0.1201 
      27 C21       -0.8749    0.6585    3.4252 C.ar      1 <0>        -0.1046 
      28 Br1       13.3176    2.1044    4.3799 Br        1 <0>        -0.0155 
      29 H1        10.3386    4.2328    4.7851 H         1 <0>         0.0903 
      30 H2        10.7458    3.1111    3.4644 H         1 <0>         0.0953 
      31 H3         9.1088    3.1062    4.1634 H         1 <0>         0.0712 
      32 H4        13.7845   -0.1342    6.7682 H         1 <0>         0.1274 
      33 H5        13.1802   -1.5572    8.6609 H         1 <0>         0.1276 
      34 H6        10.8947   -1.5226    9.5664 H         1 <0>         0.1296 
      35 H7         9.1868   -0.0585    8.5865 H         1 <0>         0.1206 
      36 H8         8.1383    1.8851    7.6197 H         1 <0>         0.1394 
      37 H9         8.2127    3.0315    6.2601 H         1 <0>         0.1404 
      38 H10        5.7138    0.4204    3.9217 H         1 <0>         0.1240 
      39 H11        5.6394   -0.7259    5.2813 H         1 <0>         0.1139 
      40 H12        0.1539    2.4953    5.0025 H         1 <0>         0.1085 
      41 H13        1.2951    3.1725    3.8163 H         1 <0>         0.1144 
      42 H14        1.5087    2.1974    1.6009 H         1 <0>         0.1277 
      43 H15        0.4015    0.9231   -0.1918 H         1 <0>         0.1259 
      44 H16       -1.5251   -0.5182    0.3316 H         1 <0>         0.1247 
      45 H17       -2.3441   -0.6858    2.6477 H         1 <0>         0.1255 
      46 H18       -1.2317    0.5822    4.4417 H         1 <0>         0.1245 
@<TRIPOS>BOND
       1        1        2 1        
       2        1       29 1        
       3        1       30 1        
       4        1       31 1        
       5        2       10 1        
       6        2        3 2        
       7        3        4 1        
       8        3       28 1        
       9        4        9 ar       
      10        4        5 ar       
      11        5        6 ar       
      12        5       32 1        
      13        6        7 ar       
      14        6       33 1        
      15        7        8 ar       
      16        7       34 1        
      17        8        9 ar       
      18        8       35 1        
      19        9       10 1        
      20       10       11 1        
      21       11       12 1        
      22       11       36 1        
      23       11       37 1        
      24       12       13 2        
      25       12       14 1        
      26       14       15 1        
      27       15       16 1        
      28       15       38 1        
      29       15       39 1        
      30       16       20 1        
      31       16       17 2        
      32       17       18 1        
      33       18       19 2        
      34       18       21 1        
      35       19       20 1        
      36       21       22 1        
      37       21       40 1        
      38       21       41 1        
      39       22       27 ar       
      40       22       23 ar       
      41       23       24 ar       
      42       23       42 1        
      43       24       25 ar       
      44       24       43 1        
      45       25       26 ar       
      46       25       44 1        
      47       26       27 ar       
      48       26       45 1        
      49       27       46 1        

