#        scan_R01_S0005_C0000_L00001_S0001_C0000_G0010_E0001.mol2
#        Mon Jun 19 14:12:36 2017
#        Descriptor:     11    23    19     1     2     4
#        Energy - RMSD - RMSD MassCentre:     -27.2753    999.9999    999.9999
#        Receptor:       1  Surface Point:     5  Conformer:     0
#        Ligand:         1  Surface Point:     1  Conformer:     0
#        BUDE Formal Charge: 0
#        ATOM Count: 27
#        Heavy ATOM Count: 17
@<TRIPOS>MOLECULE
pdb1gcz_ligA.pdb_scan_R01_S0005_C0000_L00001_S0001_C0000_G0010_E0001
27 28 1 0 0
SMALL
GASTEIGER
@<TRIPOS>ATOM
       1 C3         4.0653    0.6153    1.9907 C.3       1 YZ9900      0.0513 
       2 C11        2.9871   -0.3616    2.3636 C.3       1 YZ9900      0.2089 
       3 O1         1.1139    2.1552    3.7283 O.2       1 YZ9900     -0.2447 
       4 O2         2.1865    0.1896    3.4843 O.3       1 YZ9900     -0.4453 
       5 C6        -3.1073    1.5186    0.6746 C.ar      1 YZ9900      0.0063 
       6 C5        -1.0494    1.3430    2.1217 C.ar      1 YZ9900      0.0160 
       7 C4        -3.6078   -1.3448    1.0992 C.ar      1 YZ9900      0.0796 
       8 O3        -1.6268   -1.3979    2.4637 O.2       1 YZ9900     -0.4208 
       9 C2        -2.2492    0.7275    1.4749 C.ar      1 YZ9900      0.0353 
      10 C1        -2.5096   -0.6637    1.6701 C.ar      1 YZ9900      0.1519 
      11 C7        -0.5294   -0.8964    2.9829 C.ar      1 YZ9900      0.3521 
      12 C12        1.1017    1.0146    3.3778 C.2       1 YZ9900      0.3476 
      13 O4        -5.5176   -1.0411   -0.3019 O.3       1 YZ9900     -0.2865 
      14 O5         0.1718   -1.6018    3.5908 O.2       1 YZ9900     -0.2442 
      15 C10       -4.2296    0.8784    0.0730 C.ar      1 YZ9900      0.0422 
      16 C9        -0.1907    0.5210    2.8000 C.ar      1 YZ9900      0.1515 
      17 C8        -4.4424   -0.5007    0.2972 C.ar      1 YZ9900      0.1988 
      18 H31        3.6130    1.5661    1.7084 H         1 YZ9900      0.0000 
      19 H32        4.7280    0.7673    2.8427 H         1 YZ9900      0.0000 
      20 H33        4.6376    0.2215    1.1509 H         1 YZ9900      0.0000 
      21 H112       3.4410   -1.3039    2.6705 H         1 YZ9900      0.0000 
      22 H113       2.3390   -0.5333    1.5041 H         1 YZ9900      0.0000 
      23 H6        -2.9183    2.5712    0.5249 H         1 YZ9900      0.0000 
      24 H5        -0.8658    2.4051    2.0555 H         1 YZ9900      0.0000 
      25 H4        -3.7989   -2.3967    1.2520 H         1 YZ9900      0.0000 
      26 HO4       -5.3634   -1.0963   -1.2477 H         1 YZ9900      0.0000 
      27 H10       -4.9106    1.4415   -0.5480 H         1 YZ9900      0.0000 
@<TRIPOS>BOND
       1       13       17 1        
       2        7       17 ar       
       3        7       10 ar       
       4        8       10 ar       
       5        8       11 ar       
       6       14       11 2        
       7       17       15 ar       
       8       10        9 ar       
       9       11       16 ar       
      10        2        4 1        
      11        2        1 1        
      12       15        5 ar       
      13        9        5 ar       
      14        9        6 ar       
      15       16        6 ar       
      16       16       12 1        
      17        4       12 1        
      18       12        3 2        
      19       18        1 1        
      20       19        1 1        
      21       20        1 1        
      22       21        2 1        
      23       22        2 1        
      24       23        5 1        
      25       24        6 1        
      26       25        7 1        
      27       26       13 1        
      28       27       15 1        
@<TRIPOS>SUBSTRUCTURE
 1 YZ9900 10 RESIDUE 4 A YZ9900 0 ROOT

