#        scan_R01_S0005_C0000_L00001_S0001_C0002_G0010_E0001.mol2
#        Mon Jun 19 14:41:03 2017
#        Descriptor:     22     2     1     1     1     5
#        Energy - RMSD - RMSD MassCentre:     -30.3909    999.9999    999.9999
#        Receptor:       1  Surface Point:     5  Conformer:     0
#        Ligand:         1  Surface Point:     1  Conformer:     2
#        BUDE Formal Charge: 0
#        ATOM Count: 27
#        Heavy ATOM Count: 17
@<TRIPOS>MOLECULE
pdb1gcz_ligA.pdb_scan_R01_S0005_C0000_L00001_S0001_C0002_G0010_E0001
27 28 1 0 0
SMALL
GASTEIGER
@<TRIPOS>ATOM
       1 C3        -7.6320   -1.6507   -0.1997 C.3       1 YZ9900      0.0513 
       2 C11       -6.4420   -0.7536   -0.5277 C.3       1 YZ9900      0.2089 
       3 O1        -4.1343    0.5032   -0.6097 O.2       1 YZ9900     -0.2447 
       4 O2        -5.3814   -1.0136    0.3955 O.3       1 YZ9900     -0.4453 
       5 C6         0.3464    0.5982    1.9212 C.ar      1 YZ9900      0.0063 
       6 C5        -1.9673    0.1428    1.0804 C.ar      1 YZ9900      0.0160 
       7 C4         0.0385   -1.3095    3.9280 C.ar      1 YZ9900      0.0796 
       8 O3        -2.1958   -1.7888    3.1616 O.2       1 YZ9900     -0.4208 
       9 C2        -0.8558   -0.1095    2.0245 C.ar      1 YZ9900      0.0353 
      10 C1        -1.0107   -1.0681    3.0330 C.ar      1 YZ9900      0.1519 
      11 C7        -3.2390   -1.5478    2.2705 C.ar      1 YZ9900      0.3521 
      12 C12       -4.2377   -0.3088    0.2609 C.2       1 YZ9900      0.3476 
      13 O4         2.2417   -0.8754    4.7282 O.3       1 YZ9900     -0.2865 
      14 O5        -4.2682   -2.1898    2.4006 O.2       1 YZ9900     -0.2442 
      15 C10        1.3923    0.3528    2.8189 C.ar      1 YZ9900      0.0422 
      16 C9        -3.1114   -0.5422    1.1921 C.ar      1 YZ9900      0.1515 
      17 C8         1.2438   -0.6045    3.8294 C.ar      1 YZ9900      0.1988 
      18 H31       -7.9811   -1.4349    0.8080 H         1 YZ9900      0.0000 
      19 H32       -8.4340   -1.4623   -0.9102 H         1 YZ9900      0.0000 
      20 H33       -7.3277   -2.6933   -0.2633 H         1 YZ9900      0.0000 
      21 H112      -6.7413    0.2896   -0.4507 H         1 YZ9900      0.0000 
      22 H113      -6.0998   -0.9596   -1.5397 H         1 YZ9900      0.0000 
      23 H6         0.4731    1.3392    1.1458 H         1 YZ9900      0.0000 
      24 H5        -1.8379    0.8843    0.3059 H         1 YZ9900      0.0000 
      25 H4        -0.0857   -2.0501    4.7044 H         1 YZ9900      0.0000 
      26 HO4        1.9609   -1.5503    5.3659 H         1 YZ9900      0.0000 
      27 H10        2.3102    0.9127    2.7174 H         1 YZ9900      0.0000 
@<TRIPOS>BOND
       1       13       17 1        
       2        7       17 ar       
       3        7       10 ar       
       4        8       10 ar       
       5        8       11 ar       
       6       14       11 2        
       7       17       15 ar       
       8       10        9 ar       
       9       11       16 ar       
      10        2        4 1        
      11        2        1 1        
      12       15        5 ar       
      13        9        5 ar       
      14        9        6 ar       
      15       16        6 ar       
      16       16       12 1        
      17        4       12 1        
      18       12        3 2        
      19       18        1 1        
      20       19        1 1        
      21       20        1 1        
      22       21        2 1        
      23       22        2 1        
      24       23        5 1        
      25       24        6 1        
      26       25        7 1        
      27       26       13 1        
      28       27       15 1        
@<TRIPOS>SUBSTRUCTURE
 1 YZ9900 10 RESIDUE 4 A YZ9900 0 ROOT

