#        scan_R01_S0005_C0000_L00001_S0001_C0003_G0010_E0001.mol2
#        Mon Jun 19 14:41:04 2017
#        Descriptor:     23     3     1     1     1     5
#        Energy - RMSD - RMSD MassCentre:     -30.5394    999.9999    999.9999
#        Receptor:       1  Surface Point:     5  Conformer:     0
#        Ligand:         1  Surface Point:     1  Conformer:     3
#        BUDE Formal Charge: 0
#        ATOM Count: 27
#        Heavy ATOM Count: 17
@<TRIPOS>MOLECULE
pdb1gcz_ligA.pdb_scan_R01_S0005_C0000_L00001_S0001_C0003_G0010_E0001
27 28 1 0 0
SMALL
GASTEIGER
@<TRIPOS>ATOM
       1 C3        -6.4833    0.9656   -0.8847 C.3       1 YZ9900      0.0513 
       2 C11       -5.9140   -0.4149   -1.1991 C.3       1 YZ9900      0.2089 
       3 O1        -3.7337    0.9703   -0.7091 O.2       1 YZ9900     -0.2447 
       4 O2        -4.9699   -0.7813   -0.1894 O.3       1 YZ9900     -0.4453 
       5 C6         0.3371    0.8513    2.4381 C.ar      1 YZ9900      0.0063 
       6 C5        -1.7931    0.4261    1.1935 C.ar      1 YZ9900      0.0160 
       7 C4        -0.0742   -1.4172    4.0021 C.ar      1 YZ9900      0.0796 
       8 O3        -2.1340   -1.8752    2.8373 O.2       1 YZ9900     -0.4208 
       9 C2        -0.8024    0.0663    2.2324 C.ar      1 YZ9900      0.0353 
      10 C1        -1.0091   -1.0736    3.0183 C.ar      1 YZ9900      0.1519 
      11 C7        -3.0635   -1.5323    1.8581 C.ar      1 YZ9900      0.3521 
      12 C12       -3.8838    0.0032   -0.0234 C.2       1 YZ9900      0.3476 
      13 O4         1.9543   -1.0118    5.1869 O.3       1 YZ9900     -0.2865 
      14 O5        -4.0415   -2.2478    1.7161 O.2       1 YZ9900     -0.2442 
      15 C10        1.2688    0.5031    3.4233 C.ar      1 YZ9900      0.0422 
      16 C9        -2.8783   -0.3348    1.0086 C.ar      1 YZ9900      0.1515 
      17 C8         1.0679   -0.6355    4.2125 C.ar      1 YZ9900      0.1988 
      18 H31       -5.6769    1.6960   -0.8747 H         1 YZ9900      0.0000 
      19 H32       -7.2115    1.2387   -1.6456 H         1 YZ9900      0.0000 
      20 H33       -6.9667    0.9445    0.0897 H         1 YZ9900      0.0000 
      21 H112      -5.4180   -0.3915   -2.1671 H         1 YZ9900      0.0000 
      22 H113      -6.7210   -1.1442   -1.2218 H         1 YZ9900      0.0000 
      23 H6         0.5032    1.7321    1.8356 H         1 YZ9900      0.0000 
      24 H5        -1.6245    1.3074    0.5924 H         1 YZ9900      0.0000 
      25 H4        -0.2380   -2.2976    4.6059 H         1 YZ9900      0.0000 
      26 HO4        1.6490   -1.8109    5.6444 H         1 YZ9900      0.0000 
      27 H10        2.1401    1.1260    3.5619 H         1 YZ9900      0.0000 
@<TRIPOS>BOND
       1       13       17 1        
       2        7       17 ar       
       3        7       10 ar       
       4        8       10 ar       
       5        8       11 ar       
       6       14       11 2        
       7       17       15 ar       
       8       10        9 ar       
       9       11       16 ar       
      10        2        4 1        
      11        2        1 1        
      12       15        5 ar       
      13        9        5 ar       
      14        9        6 ar       
      15       16        6 ar       
      16       16       12 1        
      17        4       12 1        
      18       12        3 2        
      19       18        1 1        
      20       19        1 1        
      21       20        1 1        
      22       21        2 1        
      23       22        2 1        
      24       23        5 1        
      25       24        6 1        
      26       25        7 1        
      27       26       13 1        
      28       27       15 1        
@<TRIPOS>SUBSTRUCTURE
 1 YZ9900 10 RESIDUE 4 A YZ9900 0 ROOT

