#        scan_R01_S0005_C0000_L00001_S0001_C0003_G0010_E0001.mol2
#        Mon Jun 19 14:12:37 2017
#        Descriptor:     22     1     2     2     1     5
#        Energy - RMSD - RMSD MassCentre:     -29.0651    999.9999    999.9999
#        Receptor:       1  Surface Point:     5  Conformer:     0
#        Ligand:         1  Surface Point:     1  Conformer:     3
#        BUDE Formal Charge: 0
#        ATOM Count: 27
#        Heavy ATOM Count: 17
@<TRIPOS>MOLECULE
pdb1gcz_ligA.pdb_scan_R01_S0005_C0000_L00001_S0001_C0003_G0010_E0001
27 28 1 0 0
SMALL
GASTEIGER
@<TRIPOS>ATOM
       1 C3        -6.5588   -0.5150    0.5984 C.3       1 YZ9900      0.0513 
       2 C11       -5.9019   -1.8842    0.4491 C.3       1 YZ9900      0.2089 
       3 O1        -3.8963   -0.2636   -0.0642 O.2       1 YZ9900     -0.2447 
       4 O2        -4.6758   -1.9064    1.1847 O.3       1 YZ9900     -0.4453 
       5 C6         0.8495    0.7353    1.6591 C.ar      1 YZ9900      0.0063 
       6 C5        -1.4535   -0.1526    1.2405 C.ar      1 YZ9900      0.0160 
       7 C4         1.2140   -1.0744    3.7457 C.ar      1 YZ9900      0.0796 
       8 O3        -0.9956   -1.9681    3.3874 O.2       1 YZ9900     -0.4208 
       9 C2        -0.1761   -0.1575    1.9879 C.ar      1 YZ9900      0.0353 
      10 C1         0.0070   -1.0668    3.0364 C.ar      1 YZ9900      0.1519 
      11 C7        -2.1961   -1.9596    2.6809 C.ar      1 YZ9900      0.3521 
      12 C12       -3.7117   -1.0283    0.8353 C.2       1 YZ9900      0.3476 
      13 O4         3.4069   -0.2285    4.1438 O.3       1 YZ9900     -0.2865 
      14 O5        -3.0608   -2.7570    3.0045 O.2       1 YZ9900     -0.2442 
      15 C10        2.0545    0.7234    2.3717 C.ar      1 YZ9900      0.0422 
      16 C9        -2.4253   -1.0128    1.5669 C.ar      1 YZ9900      0.1515 
      17 C8         2.2439   -0.1834    3.4212 C.ar      1 YZ9900      0.1988 
      18 H31       -5.8954    0.2502    0.2005 H         1 YZ9900      0.0000 
      19 H32       -7.4982   -0.5024    0.0497 H         1 YZ9900      0.0000 
      20 H33       -6.7504   -0.3182    1.6511 H         1 YZ9900      0.0000 
      21 H112      -5.6969   -2.0762   -0.6020 H         1 YZ9900      0.0000 
      22 H113      -6.5696   -2.6515    0.8351 H         1 YZ9900      0.0000 
      23 H6         0.7154    1.4396    0.8515 H         1 YZ9900      0.0000 
      24 H5        -1.5849    0.5528    0.4333 H         1 YZ9900      0.0000 
      25 H4         1.3506   -1.7778    4.5538 H         1 YZ9900      0.0000 
      26 HO4        3.3573   -0.9019    4.8402 H         1 YZ9900      0.0000 
      27 H10        2.8304    1.4230    2.0979 H         1 YZ9900      0.0000 
@<TRIPOS>BOND
       1       13       17 1        
       2        7       17 ar       
       3        7       10 ar       
       4        8       10 ar       
       5        8       11 ar       
       6       14       11 2        
       7       17       15 ar       
       8       10        9 ar       
       9       11       16 ar       
      10        2        4 1        
      11        2        1 1        
      12       15        5 ar       
      13        9        5 ar       
      14        9        6 ar       
      15       16        6 ar       
      16       16       12 1        
      17        4       12 1        
      18       12        3 2        
      19       18        1 1        
      20       19        1 1        
      21       20        1 1        
      22       21        2 1        
      23       22        2 1        
      24       23        5 1        
      25       24        6 1        
      26       25        7 1        
      27       26       13 1        
      28       27       15 1        
@<TRIPOS>SUBSTRUCTURE
 1 YZ9900 10 RESIDUE 4 A YZ9900 0 ROOT

