#        scan_R01_S0006_C0000_L00001_S0001_C0000_G0010_E0001.mol2
#        Mon Jun 19 14:41:04 2017
#        Descriptor:     11    14     4     3     3     7
#        Energy - RMSD - RMSD MassCentre:     -44.9793    999.9999    999.9999
#        Receptor:       1  Surface Point:     6  Conformer:     0
#        Ligand:         1  Surface Point:     1  Conformer:     0
#        BUDE Formal Charge: 0
#        ATOM Count: 27
#        Heavy ATOM Count: 17
@<TRIPOS>MOLECULE
pdb1gcz_ligA.pdb_scan_R01_S0006_C0000_L00001_S0001_C0000_G0010_E0001
27 28 1 0 0
SMALL
GASTEIGER
@<TRIPOS>ATOM
       1 C3         0.8170    1.2036   10.0951 C.3       1 YZ9900      0.0513 
       2 C11        0.6046    2.0369    8.8637 C.3       1 YZ9900      0.2089 
       3 O1         3.4523    0.7662    7.4560 O.2       1 YZ9900     -0.2447 
       4 O2         1.9014    2.2350    8.1710 O.3       1 YZ9900     -0.4453 
       5 C6         1.1812   -1.2780    3.1884 C.ar      1 YZ9900      0.0063 
       6 C5         1.9489    0.0585    5.1846 C.ar      1 YZ9900      0.0160 
       7 C4        -0.2503    1.0886    2.1983 C.ar      1 YZ9900      0.0796 
       8 O3         0.5402    2.2693    4.1400 O.2       1 YZ9900     -0.4208 
       9 C2         1.1977   -0.0525    3.8961 C.ar      1 YZ9900      0.0353 
      10 C1         0.4957    1.0879    3.3981 C.ar      1 YZ9900      0.1519 
      11 C7         1.1330    2.3707    5.3078 C.ar      1 YZ9900      0.3521 
      12 C12        2.4631    1.3998    7.2459 C.2       1 YZ9900      0.3476 
      13 O4        -0.9181   -0.2952    0.3703 O.3       1 YZ9900     -0.2865 
      14 O5         1.0739    3.3868    5.8759 O.2       1 YZ9900     -0.2442 
      15 C10        0.4404   -1.3309    1.9720 C.ar      1 YZ9900      0.0422 
      16 C9         1.8523    1.2288    5.8874 C.ar      1 YZ9900      0.1515 
      17 C8        -0.2371   -0.1747    1.5229 C.ar      1 YZ9900      0.1988 
      18 H31        1.2531    0.2447    9.8149 H         1 YZ9900      0.0000 
      19 H32        1.4919    1.7248   10.7742 H         1 YZ9900      0.0000 
      20 H33       -0.1395    1.0370   10.5904 H         1 YZ9900      0.0000 
      21 H112       0.1925    3.0054    9.1471 H         1 YZ9900      0.0000 
      22 H113      -0.0901    1.5277    8.1957 H         1 YZ9900      0.0000 
      23 H6         1.7117   -2.1431    3.5573 H         1 YZ9900      0.0000 
      24 H5         2.5500   -0.7610    5.5498 H         1 YZ9900      0.0000 
      25 H4        -0.7777    1.9550    1.8274 H         1 YZ9900      0.0000 
      26 HO4       -1.6949   -0.8410    0.5125 H         1 YZ9900      0.0000 
      27 H10        0.3971   -2.2455    1.3991 H         1 YZ9900      0.0000 
@<TRIPOS>BOND
       1       13       17 1        
       2        7       17 ar       
       3        7       10 ar       
       4        8       10 ar       
       5        8       11 ar       
       6       14       11 2        
       7       17       15 ar       
       8       10        9 ar       
       9       11       16 ar       
      10        2        4 1        
      11        2        1 1        
      12       15        5 ar       
      13        9        5 ar       
      14        9        6 ar       
      15       16        6 ar       
      16       16       12 1        
      17        4       12 1        
      18       12        3 2        
      19       18        1 1        
      20       19        1 1        
      21       20        1 1        
      22       21        2 1        
      23       22        2 1        
      24       23        5 1        
      25       24        6 1        
      26       25        7 1        
      27       26       13 1        
      28       27       15 1        
@<TRIPOS>SUBSTRUCTURE
 1 YZ9900 10 RESIDUE 4 A YZ9900 0 ROOT

