#        1GCZ_R01_S0001_C0000_L00004_S0001_C0001_G0010_E0001.mol2
#        Tue Jun  6 09:55:20 2017
#        Descriptor:     12    26     5    10     9    13
#        Energy - RMSD - RMSD MassCentre:     -72.2882    999.9999    999.9999
#        Receptor:       1  Surface Point:     1  Conformer:     0
#        Ligand:         4  Surface Point:     1  Conformer:     1
#        BUDE Formal Charge: 0
#        ATOM Count: 46
#        Heavy ATOM Count: 28
@<TRIPOS>MOLECULE
ZINC61563277_1GCZ_R01_S0001_C0000_L00004_S0001_C0001_G0010_E0001
 46 49 0 0 0
SMALL
USER_CHARGES
@<TRIPOS>ATOM
       1 C1         4.8009    1.1108    4.8744 C.3       1 <0>        -0.1051 
       2 C2         4.7811    1.0755    6.3839 C.2       1 <0>         0.1324 
       3 C3         5.1734    0.0497    7.1515 C.2       1 <0>        -0.1714 
       4 C4         4.9666    0.4505    8.5854 C.ar      1 <0>        -0.0773 
       5 C5         5.1528   -0.1775    9.8227 C.ar      1 <0>        -0.0675 
       6 C6         4.8734    0.5910   10.9592 C.ar      1 <0>        -0.1361 
       7 C7         4.4747    1.9289   10.8420 C.ar      1 <0>        -0.0920 
       8 C8         4.3042    2.5423    9.5950 C.ar      1 <0>        -0.1265 
       9 C9         4.5029    1.7643    8.4480 C.ar      1 <0>         0.1084 
      10 N1         4.3539    2.0658    7.1405 N.pl3     1 <0>        -0.4675 
      11 C10        3.8151    3.3475    6.6368 C.3       1 <0>         0.1242 
      12 C11        2.3062    3.3113    6.6783 C.2       1 <0>         0.4463 
      13 O1         1.7115    4.0398    7.4155 O.2       1 <0>        -0.4704 
      14 O2         1.6299    2.4559    5.8824 O.3       1 <0>        -0.3437 
      15 C12        0.2018    2.4575    5.9565 C.3       1 <0>         0.1567 
      16 C13       -0.3525    1.4357    4.9927 C.2       1 <0>         0.2874 
      17 N2        -1.0965    1.4912    3.9038 N.2       1 <0>        -0.5106 
      18 C14       -1.3021    0.2008    3.4012 C.2       1 <0>         0.2609 
      19 N3        -0.7094   -0.6369    4.1662 N.2       1 <0>        -0.3200 
      20 O3        -0.0949    0.0823    5.1983 O.3       1 <0>        -0.0928 
      21 C15       -2.0776   -0.1518    2.1544 C.3       1 <0>         0.0037 
      22 C16       -1.1347   -0.2123    0.9766 C.ar      1 <0>        -0.0973 
      23 C17       -0.8887    0.9290    0.2039 C.ar      1 <0>        -0.0995 
      24 C18        0.0019    0.8810   -0.8752 C.ar      1 <0>        -0.1207 
      25 C19        0.6393   -0.3169   -1.2063 C.ar      1 <0>        -0.1122 
      26 C20        0.3898   -1.4648   -0.4450 C.ar      1 <0>        -0.1201 
      27 C21       -0.5000   -1.4124    0.6346 C.ar      1 <0>        -0.1046 
      28 Br1        5.8763   -1.6015    6.5914 Br        1 <0>        -0.0155 
      29 H1         5.4408    1.9246    4.5398 H         1 <0>         0.0903 
      30 H2         3.7905    1.2667    4.5026 H         1 <0>         0.0953 
      31 H3         5.1861    0.1665    4.4953 H         1 <0>         0.0712 
      32 H4         5.4943   -1.1972    9.9242 H         1 <0>         0.1274 
      33 H5         4.9920    0.1347   11.9307 H         1 <0>         0.1276 
      34 H6         4.2962    2.5140   11.7321 H         1 <0>         0.1296 
      35 H7         4.0373    3.5884    9.5700 H         1 <0>         0.1206 
      36 H8         4.1455    3.5012    5.6117 H         1 <0>         0.1394 
      37 H9         4.1762    4.1633    7.2596 H         1 <0>         0.1404 
      38 H10       -0.1732    3.4448    5.6946 H         1 <0>         0.1240 
      39 H11       -0.1084    2.2078    6.9689 H         1 <0>         0.1139 
      40 H12       -2.8366    0.6065    1.9736 H         1 <0>         0.1085 
      41 H13       -2.5557   -1.1200    2.2872 H         1 <0>         0.1144 
      42 H14       -1.3881    1.8593    0.4303 H         1 <0>         0.1277 
      43 H15        0.1859    1.7697   -1.4605 H         1 <0>         0.1259 
      44 H16        1.3290   -0.3605   -2.0362 H         1 <0>         0.1247 
      45 H17        0.8847   -2.3922   -0.6932 H         1 <0>         0.1255 
      46 H18       -0.6942   -2.3115    1.2007 H         1 <0>         0.1245 
@<TRIPOS>BOND
       1        1        2 1        
       2        1       29 1        
       3        1       30 1        
       4        1       31 1        
       5        2       10 1        
       6        2        3 2        
       7        3        4 1        
       8        3       28 1        
       9        4        9 ar       
      10        4        5 ar       
      11        5        6 ar       
      12        5       32 1        
      13        6        7 ar       
      14        6       33 1        
      15        7        8 ar       
      16        7       34 1        
      17        8        9 ar       
      18        8       35 1        
      19        9       10 1        
      20       10       11 1        
      21       11       12 1        
      22       11       36 1        
      23       11       37 1        
      24       12       13 2        
      25       12       14 1        
      26       14       15 1        
      27       15       16 1        
      28       15       38 1        
      29       15       39 1        
      30       16       20 1        
      31       16       17 2        
      32       17       18 1        
      33       18       19 2        
      34       18       21 1        
      35       19       20 1        
      36       21       22 1        
      37       21       40 1        
      38       21       41 1        
      39       22       27 ar       
      40       22       23 ar       
      41       23       24 ar       
      42       23       42 1        
      43       24       25 ar       
      44       24       43 1        
      45       25       26 ar       
      46       25       44 1        
      47       26       27 ar       
      48       26       45 1        
      49       27       46 1        

