#        scan_R01_S0007_C0000_L00001_S0001_C0000_G0010_E0001.mol2
#        Mon Jun 19 14:12:39 2017
#        Descriptor:     23    22    33     3     3     3
#        Energy - RMSD - RMSD MassCentre:     -47.3940    999.9999    999.9999
#        Receptor:       1  Surface Point:     7  Conformer:     0
#        Ligand:         1  Surface Point:     1  Conformer:     0
#        BUDE Formal Charge: 0
#        ATOM Count: 27
#        Heavy ATOM Count: 17
@<TRIPOS>MOLECULE
pdb1gcz_ligA.pdb_scan_R01_S0007_C0000_L00001_S0001_C0000_G0010_E0001
27 28 1 0 0
SMALL
GASTEIGER
@<TRIPOS>ATOM
       1 C3         1.6583    4.3591   -2.7840 C.3       1 YZ9900      0.0513 
       2 C11        2.0522    2.9807   -2.3361 C.3       1 YZ9900      0.2089 
       3 O1         2.5522    4.1097    0.8547 O.2       1 YZ9900     -0.2447 
       4 O2         2.8939    3.0781   -1.1184 O.3       1 YZ9900     -0.4453 
       5 C6        -0.9263    0.9472    3.1886 C.ar      1 YZ9900      0.0063 
       6 C5         0.8304    2.0861    1.7827 C.ar      1 YZ9900      0.0160 
       7 C4         0.0006   -1.6514    2.1796 C.ar      1 YZ9900      0.0796 
       8 O3         1.6400   -0.4623    0.8807 O.2       1 YZ9900     -0.4208 
       9 C2         0.1456    0.8490    2.2699 C.ar      1 YZ9900      0.0353 
      10 C1         0.5826   -0.4242    1.7910 C.ar      1 YZ9900      0.1519 
      11 C7         2.2093    0.6126    0.3846 C.ar      1 YZ9900      0.3521 
      12 C12        2.4491    3.1356    0.1730 C.2       1 YZ9900      0.3476 
      13 O4        -1.7150   -2.5977    3.5448 O.3       1 YZ9900     -0.2865 
      14 O5         3.0530    0.4800   -0.4087 O.2       1 YZ9900     -0.2442 
      15 C10       -1.5501   -0.2627    3.6111 C.ar      1 YZ9900      0.0422 
      16 C9         1.7910    1.9524    0.8171 C.ar      1 YZ9900      0.1515 
      17 C8        -1.0803   -1.4967    3.1071 C.ar      1 YZ9900      0.1988 
      18 H31        1.1170    4.8614   -1.9821 H         1 YZ9900      0.0000 
      19 H32        2.5533    4.9302   -3.0311 H         1 YZ9900      0.0000 
      20 H33        1.0192    4.2864   -3.6639 H         1 YZ9900      0.0000 
      21 H112       2.6157    2.4884   -3.1287 H         1 YZ9900      0.0000 
      22 H113       1.1564    2.4010   -2.1132 H         1 YZ9900      0.0000 
      23 H6        -1.2601    1.9058    3.5571 H         1 YZ9900      0.0000 
      24 H5         0.5744    3.0566    2.1811 H         1 YZ9900      0.0000 
      25 H4         0.3370   -2.6104    1.8141 H         1 YZ9900      0.0000 
      26 HO4       -2.5925   -2.6370    3.1576 H         1 YZ9900      0.0000 
      27 H10       -2.3737   -0.2368    4.3093 H         1 YZ9900      0.0000 
@<TRIPOS>BOND
       1       13       17 1        
       2        7       17 ar       
       3        7       10 ar       
       4        8       10 ar       
       5        8       11 ar       
       6       14       11 2        
       7       17       15 ar       
       8       10        9 ar       
       9       11       16 ar       
      10        2        4 1        
      11        2        1 1        
      12       15        5 ar       
      13        9        5 ar       
      14        9        6 ar       
      15       16        6 ar       
      16       16       12 1        
      17        4       12 1        
      18       12        3 2        
      19       18        1 1        
      20       19        1 1        
      21       20        1 1        
      22       21        2 1        
      23       22        2 1        
      24       23        5 1        
      25       24        6 1        
      26       25        7 1        
      27       26       13 1        
      28       27       15 1        
@<TRIPOS>SUBSTRUCTURE
 1 YZ9900 10 RESIDUE 4 A YZ9900 0 ROOT

