#        scan_R01_S0007_C0000_L00001_S0001_C0002_G0010_E0001.mol2
#        Mon Jun 19 14:41:06 2017
#        Descriptor:      7     5    22     3     2     4
#        Energy - RMSD - RMSD MassCentre:     -51.7256    999.9999    999.9999
#        Receptor:       1  Surface Point:     7  Conformer:     0
#        Ligand:         1  Surface Point:     1  Conformer:     2
#        BUDE Formal Charge: 0
#        ATOM Count: 27
#        Heavy ATOM Count: 17
@<TRIPOS>MOLECULE
pdb1gcz_ligA.pdb_scan_R01_S0007_C0000_L00001_S0001_C0002_G0010_E0001
27 28 1 0 0
SMALL
GASTEIGER
@<TRIPOS>ATOM
       1 C3         4.3162    3.8393   -3.3766 C.3       1 YZ9900      0.0513 
       2 C11        3.3241    4.2697   -2.3000 C.3       1 YZ9900      0.2089 
       3 O1         1.6474    4.4153   -0.2802 O.2       1 YZ9900     -0.2447 
       4 O2         2.9822    3.1420   -1.4898 O.3       1 YZ9900     -0.4453 
       5 C6        -0.4076    1.3535    3.3105 C.ar      1 YZ9900      0.0063 
       6 C5         0.8615    2.3550    1.3991 C.ar      1 YZ9900      0.0160 
       7 C4         0.7068   -1.1474    2.7956 C.ar      1 YZ9900      0.0796 
       8 O3         1.9526   -0.2367    0.9441 O.2       1 YZ9900     -0.4208 
       9 C2         0.4930    1.2022    2.2509 C.ar      1 YZ9900      0.0353 
      10 C1         1.0530   -0.0545    1.9920 C.ar      1 YZ9900      0.1519 
      11 C7         2.2963    0.8514    0.1453 C.ar      1 YZ9900      0.3521 
      12 C12        2.1094    3.3310   -0.4774 C.2       1 YZ9900      0.3476 
      13 O4        -0.5020   -2.1005    4.6158 O.3       1 YZ9900     -0.2865 
      14 O5         3.0858    0.6701   -0.7670 O.2       1 YZ9900     -0.2442 
      15 C10       -0.7503    0.2572    4.1110 C.ar      1 YZ9900      0.0422 
      16 C9         1.7245    2.1945    0.3889 C.ar      1 YZ9900      0.1515 
      17 C8        -0.1939   -1.0020    3.8574 C.ar      1 YZ9900      0.1988 
      18 H31        3.8595    3.0785   -4.0063 H         1 YZ9900      0.0000 
      19 H32        4.5864    4.7000   -3.9846 H         1 YZ9900      0.0000 
      20 H33        5.2085    3.4330   -2.9050 H         1 YZ9900      0.0000 
      21 H112       2.4254    4.6632   -2.7704 H         1 YZ9900      0.0000 
      22 H113       3.7750    5.0394   -1.6772 H         1 YZ9900      0.0000 
      23 H6        -0.8436    2.3200    3.5162 H         1 YZ9900      0.0000 
      24 H5         0.4241    3.3204    1.6069 H         1 YZ9900      0.0000 
      25 H4         1.1414   -2.1149    2.5920 H         1 YZ9900      0.0000 
      26 HO4       -0.0408   -2.8888    4.2889 H         1 YZ9900      0.0000 
      27 H10       -1.4480    0.4008    4.9228 H         1 YZ9900      0.0000 
@<TRIPOS>BOND
       1       13       17 1        
       2        7       17 ar       
       3        7       10 ar       
       4        8       10 ar       
       5        8       11 ar       
       6       14       11 2        
       7       17       15 ar       
       8       10        9 ar       
       9       11       16 ar       
      10        2        4 1        
      11        2        1 1        
      12       15        5 ar       
      13        9        5 ar       
      14        9        6 ar       
      15       16        6 ar       
      16       16       12 1        
      17        4       12 1        
      18       12        3 2        
      19       18        1 1        
      20       19        1 1        
      21       20        1 1        
      22       21        2 1        
      23       22        2 1        
      24       23        5 1        
      25       24        6 1        
      26       25        7 1        
      27       26       13 1        
      28       27       15 1        
@<TRIPOS>SUBSTRUCTURE
 1 YZ9900 10 RESIDUE 4 A YZ9900 0 ROOT

