#        scan_R01_S0007_C0000_L00001_S0001_C0002_G0010_E0001.mol2
#        Mon Jun 19 14:12:40 2017
#        Descriptor:      5     5    22     3     2     4
#        Energy - RMSD - RMSD MassCentre:     -47.1887    999.9999    999.9999
#        Receptor:       1  Surface Point:     7  Conformer:     0
#        Ligand:         1  Surface Point:     1  Conformer:     2
#        BUDE Formal Charge: 0
#        ATOM Count: 27
#        Heavy ATOM Count: 17
@<TRIPOS>MOLECULE
pdb1gcz_ligA.pdb_scan_R01_S0007_C0000_L00001_S0001_C0002_G0010_E0001
27 28 1 0 0
SMALL
GASTEIGER
@<TRIPOS>ATOM
       1 C3         4.5802    3.8272   -3.2134 C.3       1 YZ9900      0.0513 
       2 C11        3.8791    4.2820   -1.9366 C.3       1 YZ9900      0.2089 
       3 O1         2.5585    4.4603    0.3297 O.2       1 YZ9900     -0.2447 
       4 O2         3.3396    3.1442   -1.2589 O.3       1 YZ9900     -0.4453 
       5 C6         0.1833    1.3916    3.7109 C.ar      1 YZ9900      0.0063 
       6 C5         1.4425    2.3845    1.7884 C.ar      1 YZ9900      0.0160 
       7 C4         0.4998   -1.1659    2.6525 C.ar      1 YZ9900      0.0796 
       8 O3         1.7189   -0.2648    0.7788 O.2       1 YZ9900     -0.4208 
       9 C2         0.8757    1.2217    2.5073 C.ar      1 YZ9900      0.0353 
      10 C1         1.0347   -0.0635    1.9754 C.ar      1 YZ9900      0.1519 
      11 C7         2.2507    0.8329    0.1059 C.ar      1 YZ9900      0.3521 
      12 C12        2.6785    3.3518   -0.1002 C.2       1 YZ9900      0.3476 
      13 O4        -0.6993   -2.1108    4.4834 O.3       1 YZ9900     -0.2865 
      14 O5         2.8462    0.6345   -0.9402 O.2       1 YZ9900     -0.2442 
      15 C10       -0.3495    0.2857    4.3839 C.ar      1 YZ9900      0.0422 
      16 C9         2.1022    2.2059    0.6379 C.ar      1 YZ9900      0.1515 
      17 C8        -0.1939   -1.0020    3.8573 C.ar      1 YZ9900      0.1988 
      18 H31        3.8611    3.3366   -3.8661 H         1 YZ9900      0.0000 
      19 H32        5.0021    4.6915   -3.7221 H         1 YZ9900      0.0000 
      20 H33        5.3762    3.1300   -2.9606 H         1 YZ9900      0.0000 
      21 H112       3.0737    4.9685   -2.1890 H         1 YZ9900      0.0000 
      22 H113       4.5944    4.7839   -1.2884 H         1 YZ9900      0.0000 
      23 H6         0.0567    2.3801    4.1273 H         1 YZ9900      0.0000 
      24 H5         1.3145    3.3718    2.2070 H         1 YZ9900      0.0000 
      25 H4         0.6251   -2.1555    2.2382 H         1 YZ9900      0.0000 
      26 HO4       -0.5142   -2.9136    3.9713 H         1 YZ9900      0.0000 
      27 H10       -0.8797    0.4441    5.3115 H         1 YZ9900      0.0000 
@<TRIPOS>BOND
       1       13       17 1        
       2        7       17 ar       
       3        7       10 ar       
       4        8       10 ar       
       5        8       11 ar       
       6       14       11 2        
       7       17       15 ar       
       8       10        9 ar       
       9       11       16 ar       
      10        2        4 1        
      11        2        1 1        
      12       15        5 ar       
      13        9        5 ar       
      14        9        6 ar       
      15       16        6 ar       
      16       16       12 1        
      17        4       12 1        
      18       12        3 2        
      19       18        1 1        
      20       19        1 1        
      21       20        1 1        
      22       21        2 1        
      23       22        2 1        
      24       23        5 1        
      25       24        6 1        
      26       25        7 1        
      27       26       13 1        
      28       27       15 1        
@<TRIPOS>SUBSTRUCTURE
 1 YZ9900 10 RESIDUE 4 A YZ9900 0 ROOT

