#        scan_R01_S0007_C0000_L00001_S0001_C0003_G0010_E0001.mol2
#        Mon Jun 19 14:41:07 2017
#        Descriptor:     24    13     3     3     2     4
#        Energy - RMSD - RMSD MassCentre:     -51.1196    999.9999    999.9999
#        Receptor:       1  Surface Point:     7  Conformer:     0
#        Ligand:         1  Surface Point:     1  Conformer:     3
#        BUDE Formal Charge: 0
#        ATOM Count: 27
#        Heavy ATOM Count: 17
@<TRIPOS>MOLECULE
pdb1gcz_ligA.pdb_scan_R01_S0007_C0000_L00001_S0001_C0003_G0010_E0001
27 28 1 0 0
SMALL
GASTEIGER
@<TRIPOS>ATOM
       1 C3         3.2383    4.7436   -2.6378 C.3       1 YZ9900      0.0513 
       2 C11        4.3023    3.7863   -2.1085 C.3       1 YZ9900      0.2089 
       3 O1         2.8520    4.2240    0.0402 O.2       1 YZ9900     -0.2447 
       4 O2         3.6726    2.7375   -1.3680 O.3       1 YZ9900     -0.4453 
       5 C6         0.1397    1.5743    3.5206 C.ar      1 YZ9900      0.0063 
       6 C5         1.5582    2.3362    1.6036 C.ar      1 YZ9900      0.0160 
       7 C4         0.4099   -1.0806    2.7207 C.ar      1 YZ9900      0.0796 
       8 O3         1.7814   -0.4040    0.8578 O.2       1 YZ9900     -0.4208 
       9 C2         0.8976    1.2673    2.3856 C.ar      1 YZ9900      0.0353 
      10 C1         1.0333   -0.0667    1.9836 C.ar      1 YZ9900      0.1519 
      11 C7         2.4013    0.6056    0.1252 C.ar      1 YZ9900      0.3521 
      12 C12        2.9503    3.0767   -0.2790 C.2       1 YZ9900      0.3476 
      13 O4        -0.9409   -1.8055    4.5463 O.3       1 YZ9900     -0.2865 
      14 O5         3.0516    0.2887   -0.8572 O.2       1 YZ9900     -0.2442 
      15 C10       -0.4817    0.5565    4.2541 C.ar      1 YZ9900      0.0422 
      16 C9         2.2799    2.0268    0.5200 C.ar      1 YZ9900      0.1515 
      17 C8        -0.3497   -0.7795    3.8574 C.ar      1 YZ9900      0.1988 
      18 H31        2.6955    5.1796   -1.8016 H         1 YZ9900      0.0000 
      19 H32        3.7163    5.5342   -3.2124 H         1 YZ9900      0.0000 
      20 H33        2.5460    4.1985   -3.2758 H         1 YZ9900      0.0000 
      21 H112       4.9871    4.3274   -1.4589 H         1 YZ9900      0.0000 
      22 H113       4.8542    3.3592   -2.9431 H         1 YZ9900      0.0000 
      23 H6         0.0305    2.6012    3.8367 H         1 YZ9900      0.0000 
      24 H5         1.4473    3.3622    1.9220 H         1 YZ9900      0.0000 
      25 H4         0.5176   -2.1084    2.4067 H         1 YZ9900      0.0000 
      26 HO4       -0.7594   -2.6588    4.1221 H         1 YZ9900      0.0000 
      27 H10       -1.0612    0.8202    5.1265 H         1 YZ9900      0.0000 
@<TRIPOS>BOND
       1       13       17 1        
       2        7       17 ar       
       3        7       10 ar       
       4        8       10 ar       
       5        8       11 ar       
       6       14       11 2        
       7       17       15 ar       
       8       10        9 ar       
       9       11       16 ar       
      10        2        4 1        
      11        2        1 1        
      12       15        5 ar       
      13        9        5 ar       
      14        9        6 ar       
      15       16        6 ar       
      16       16       12 1        
      17        4       12 1        
      18       12        3 2        
      19       18        1 1        
      20       19        1 1        
      21       20        1 1        
      22       21        2 1        
      23       22        2 1        
      24       23        5 1        
      25       24        6 1        
      26       25        7 1        
      27       26       13 1        
      28       27       15 1        
@<TRIPOS>SUBSTRUCTURE
 1 YZ9900 10 RESIDUE 4 A YZ9900 0 ROOT

