#        scan_R01_S0008_C0000_L00001_S0001_C0000_G0010_E0001.mol2
#        Mon Jun 19 14:41:08 2017
#        Descriptor:      4     3    36     2     3     5
#        Energy - RMSD - RMSD MassCentre:     -62.6013    999.9999    999.9999
#        Receptor:       1  Surface Point:     8  Conformer:     0
#        Ligand:         1  Surface Point:     1  Conformer:     0
#        BUDE Formal Charge: 0
#        ATOM Count: 27
#        Heavy ATOM Count: 17
@<TRIPOS>MOLECULE
pdb1gcz_ligA.pdb_scan_R01_S0008_C0000_L00001_S0001_C0000_G0010_E0001
27 28 1 0 0
SMALL
GASTEIGER
@<TRIPOS>ATOM
       1 C3         3.6375   -2.5685    3.2641 C.3       1 YZ9900      0.0513 
       2 C11        2.9483   -1.6423    2.3034 C.3       1 YZ9900      0.2089 
       3 O1        -0.0925   -2.4123    3.6696 O.2       1 YZ9900     -0.2447 
       4 O2         1.5313   -2.0538    2.1501 O.3       1 YZ9900     -0.4453 
       5 C6        -1.3867    2.4680    5.1037 C.ar      1 YZ9900      0.0063 
       6 C5        -0.5659    0.3383    4.0309 C.ar      1 YZ9900      0.0160 
       7 C4        -1.0185    3.8590    2.5425 C.ar      1 YZ9900      0.0796 
       8 O3        -0.2523    1.7727    1.6211 O.2       1 YZ9900     -0.4208 
       9 C2        -0.9070    1.7926    3.9563 C.ar      1 YZ9900      0.0353 
      10 C1        -0.7351    2.4863    2.7192 C.ar      1 YZ9900      0.1519 
      11 C7         0.1208    0.5146    1.6805 C.ar      1 YZ9900      0.3521 
      12 C12        0.4839   -1.6658    2.9383 C.2       1 YZ9900      0.3476 
      13 O4        -1.7965    5.8054    3.6865 O.3       1 YZ9900     -0.2865 
      14 O5         0.5586    0.0177    0.7213 O.2       1 YZ9900     -0.2442 
      15 C10       -1.6856    3.8559    4.9792 C.ar      1 YZ9900      0.0422 
      16 C9        -0.0076   -0.2495    2.9283 C.ar      1 YZ9900      0.1515 
      17 C8        -1.4978    4.4957    3.7330 C.ar      1 YZ9900      0.1988 
      18 H31        3.1241   -2.5434    4.2254 H         1 YZ9900      0.0000 
      19 H32        3.6166   -3.5838    2.8679 H         1 YZ9900      0.0000 
      20 H33        4.6718   -2.2512    3.3960 H         1 YZ9900      0.0000 
      21 H112       3.4464   -1.6873    1.3348 H         1 YZ9900      0.0000 
      22 H113       2.9912   -0.6229    2.6871 H         1 YZ9900      0.0000 
      23 H6        -1.5218    1.9495    6.0413 H         1 YZ9900      0.0000 
      24 H5        -0.7546   -0.2314    4.9288 H         1 YZ9900      0.0000 
      25 H4        -0.8871    4.3766    1.6038 H         1 YZ9900      0.0000 
      26 HO4       -1.1371    6.3021    4.1762 H         1 YZ9900      0.0000 
      27 H10       -2.0520    4.4133    5.8287 H         1 YZ9900      0.0000 
@<TRIPOS>BOND
       1       13       17 1        
       2        7       17 ar       
       3        7       10 ar       
       4        8       10 ar       
       5        8       11 ar       
       6       14       11 2        
       7       17       15 ar       
       8       10        9 ar       
       9       11       16 ar       
      10        2        4 1        
      11        2        1 1        
      12       15        5 ar       
      13        9        5 ar       
      14        9        6 ar       
      15       16        6 ar       
      16       16       12 1        
      17        4       12 1        
      18       12        3 2        
      19       18        1 1        
      20       19        1 1        
      21       20        1 1        
      22       21        2 1        
      23       22        2 1        
      24       23        5 1        
      25       24        6 1        
      26       25        7 1        
      27       26       13 1        
      28       27       15 1        
@<TRIPOS>SUBSTRUCTURE
 1 YZ9900 10 RESIDUE 4 A YZ9900 0 ROOT

