#        scan_R01_S0008_C0000_L00001_S0001_C0000_G0010_E0001.mol2
#        Mon Jun 19 14:12:41 2017
#        Descriptor:     35    13    24     2     3     5
#        Energy - RMSD - RMSD MassCentre:     -57.5335    999.9999    999.9999
#        Receptor:       1  Surface Point:     8  Conformer:     0
#        Ligand:         1  Surface Point:     1  Conformer:     0
#        BUDE Formal Charge: 0
#        ATOM Count: 27
#        Heavy ATOM Count: 17
@<TRIPOS>MOLECULE
pdb1gcz_ligA.pdb_scan_R01_S0008_C0000_L00001_S0001_C0000_G0010_E0001
27 28 1 0 0
SMALL
GASTEIGER
@<TRIPOS>ATOM
       1 C3        -1.3309    5.7185    4.4141 C.3       1 YZ9900      0.0513 
       2 C11       -1.8766    4.3293    4.2464 C.3       1 YZ9900      0.2089 
       3 O1        -0.2469    3.9998    1.2562 O.2       1 YZ9900     -0.2447 
       4 O2        -1.8802    3.9699    2.8071 O.3       1 YZ9900     -0.4453 
       5 C6         2.6264   -0.1916    2.5694 C.ar      1 YZ9900      0.0063 
       6 C5         0.9035    1.6141    2.2079 C.ar      1 YZ9900      0.0160 
       7 C4         0.4985   -1.9853    3.5101 C.ar      1 YZ9900      0.0796 
       8 O3        -1.0599   -0.1928    3.1262 O.2       1 YZ9900     -0.4208 
       9 C2         1.2757    0.2271    2.6253 C.ar      1 YZ9900      0.0353 
      10 C1         0.2547   -0.6602    3.0853 C.ar      1 YZ9900      0.1519 
      11 C7        -1.4006    1.0415    2.8328 C.ar      1 YZ9900      0.3521 
      12 C12       -0.8457    3.4148    2.1068 C.2       1 YZ9900      0.3476 
      13 O4         2.2332   -3.5968    3.8205 O.3       1 YZ9900     -0.2865 
      14 O5        -2.5184    1.3521    2.9449 O.2       1 YZ9900     -0.2442 
      15 C10        2.9265   -1.5200    2.9897 C.ar      1 YZ9900      0.0422 
      16 C9        -0.3956    2.0104    2.3764 C.ar      1 YZ9900      0.1515 
      17 C8         1.8798   -2.3580    3.4367 C.ar      1 YZ9900      0.1988 
      18 H31       -0.3219    5.7650    4.0041 H         1 YZ9900      0.0000 
      19 H32       -1.9703    6.4260    3.8860 H         1 YZ9900      0.0000 
      20 H33       -1.3048    5.9731    5.4736 H         1 YZ9900      0.0000 
      21 H112      -2.8950    4.2900    4.6332 H         1 YZ9900      0.0000 
      22 H113      -1.2519    3.6246    4.7953 H         1 YZ9900      0.0000 
      23 H6         3.4031    0.4725    2.2202 H         1 YZ9900      0.0000 
      24 H5         1.6383    2.2835    1.7858 H         1 YZ9900      0.0000 
      25 H4        -0.2787   -2.6507    3.8557 H         1 YZ9900      0.0000 
      26 HO4        2.7121   -3.5505    4.6512 H         1 YZ9900      0.0000 
      27 H10        3.9436   -1.8827    2.9668 H         1 YZ9900      0.0000 
@<TRIPOS>BOND
       1       13       17 1        
       2        7       17 ar       
       3        7       10 ar       
       4        8       10 ar       
       5        8       11 ar       
       6       14       11 2        
       7       17       15 ar       
       8       10        9 ar       
       9       11       16 ar       
      10        2        4 1        
      11        2        1 1        
      12       15        5 ar       
      13        9        5 ar       
      14        9        6 ar       
      15       16        6 ar       
      16       16       12 1        
      17        4       12 1        
      18       12        3 2        
      19       18        1 1        
      20       19        1 1        
      21       20        1 1        
      22       21        2 1        
      23       22        2 1        
      24       23        5 1        
      25       24        6 1        
      26       25        7 1        
      27       26       13 1        
      28       27       15 1        
@<TRIPOS>SUBSTRUCTURE
 1 YZ9900 10 RESIDUE 4 A YZ9900 0 ROOT

