#        scan_R01_S0008_C0000_L00001_S0001_C0002_G0010_E0001.mol2
#        Mon Jun 19 14:41:08 2017
#        Descriptor:     22    18    27     2     3     4
#        Energy - RMSD - RMSD MassCentre:     -54.7628    999.9999    999.9999
#        Receptor:       1  Surface Point:     8  Conformer:     0
#        Ligand:         1  Surface Point:     1  Conformer:     2
#        BUDE Formal Charge: 0
#        ATOM Count: 27
#        Heavy ATOM Count: 17
@<TRIPOS>MOLECULE
pdb1gcz_ligA.pdb_scan_R01_S0008_C0000_L00001_S0001_C0002_G0010_E0001
27 28 1 0 0
SMALL
GASTEIGER
@<TRIPOS>ATOM
       1 C3         0.5108   -6.3379    2.7343 C.3       1 YZ9900      0.0513 
       2 C11        1.1877   -5.2025    3.4966 C.3       1 YZ9900      0.2089 
       3 O1         2.0246   -2.8898    4.4256 O.2       1 YZ9900     -0.2447 
       4 O2         0.7474   -3.9476    2.9709 O.3       1 YZ9900     -0.4453 
       5 C6         1.3401    2.1378    3.5622 C.ar      1 YZ9900      0.0063 
       6 C5         1.2934   -0.3652    3.5459 C.ar      1 YZ9900      0.0160 
       7 C4        -0.4851    2.2279    1.4593 C.ar      1 YZ9900      0.0796 
       8 O3        -0.5692   -0.1801    1.3985 O.2       1 YZ9900     -0.4208 
       9 C2         0.8519    0.9451    3.0181 C.ar      1 YZ9900      0.0353 
      10 C1        -0.0652    0.9903    1.9614 C.ar      1 YZ9900      0.1519 
      11 C7        -0.1506   -1.4109    1.8989 C.ar      1 YZ9900      0.3521 
      12 C12        1.2429   -2.8203    3.5244 C.2       1 YZ9900      0.3476 
      13 O4        -0.4402    4.6113    1.4753 O.3       1 YZ9900     -0.2865 
      14 O5        -0.6042   -2.4236    1.3918 O.2       1 YZ9900     -0.2442 
      15 C10        0.9168    3.3727    3.0563 C.ar      1 YZ9900      0.0422 
      16 C9         0.8175   -1.4976    3.0149 C.ar      1 YZ9900      0.1515 
      17 C8        -0.0001    3.4247    1.9998 C.ar      1 YZ9900      0.1988 
      18 H31        0.7839   -6.2811    1.6825 H         1 YZ9900      0.0000 
      19 H32        0.8356   -7.2924    3.1430 H         1 YZ9900      0.0000 
      20 H33       -0.5688   -6.2482    2.8346 H         1 YZ9900      0.0000 
      21 H112       2.2670   -5.2829    3.3854 H         1 YZ9900      0.0000 
      22 H113       0.9254   -5.2655    4.5506 H         1 YZ9900      0.0000 
      23 H6         2.0478    2.1107    4.3775 H         1 YZ9900      0.0000 
      24 H5         2.0012   -0.3894    4.3613 H         1 YZ9900      0.0000 
      25 H4        -1.1929    2.2577    0.6440 H         1 YZ9900      0.0000 
      26 HO4       -1.0561    4.4595    0.7414 H         1 YZ9900      0.0000 
      27 H10        1.3088    4.2788    3.4942 H         1 YZ9900      0.0000 
@<TRIPOS>BOND
       1       13       17 1        
       2        7       17 ar       
       3        7       10 ar       
       4        8       10 ar       
       5        8       11 ar       
       6       14       11 2        
       7       17       15 ar       
       8       10        9 ar       
       9       11       16 ar       
      10        2        4 1        
      11        2        1 1        
      12       15        5 ar       
      13        9        5 ar       
      14        9        6 ar       
      15       16        6 ar       
      16       16       12 1        
      17        4       12 1        
      18       12        3 2        
      19       18        1 1        
      20       19        1 1        
      21       20        1 1        
      22       21        2 1        
      23       22        2 1        
      24       23        5 1        
      25       24        6 1        
      26       25        7 1        
      27       26       13 1        
      28       27       15 1        
@<TRIPOS>SUBSTRUCTURE
 1 YZ9900 10 RESIDUE 4 A YZ9900 0 ROOT

