#        1GCZ_R01_S0001_C0000_L00004_S0001_C0001_G0010_E0001.mol2
#        Tue Jun  6 14:05:12 2017
#        Descriptor:     25    28    19    10     9    13
#        Energy - RMSD - RMSD MassCentre:     -68.4784    999.9999    999.9999
#        Receptor:       1  Surface Point:     1  Conformer:     0
#        Ligand:         4  Surface Point:     1  Conformer:     1
#        BUDE Formal Charge: 0
#        ATOM Count: 46
#        Heavy ATOM Count: 28
@<TRIPOS>MOLECULE
ZINC61563277_1GCZ_R01_S0001_C0000_L00004_S0001_C0001_G0010_E0001
 46 49 0 0 0
SMALL
USER_CHARGES
@<TRIPOS>ATOM
       1 C1         4.7287    1.5883    4.7150 C.3       1 <0>        -0.1051 
       2 C2         4.8404    1.3688    6.2047 C.2       1 <0>         0.1324 
       3 C3         5.4510    0.3375    6.8038 C.2       1 <0>        -0.1714 
       4 C4         5.3041    0.5228    8.2883 C.ar      1 <0>        -0.0773 
       5 C5         5.6888   -0.2100    9.4175 C.ar      1 <0>        -0.0675 
       6 C6         5.3881    0.3590   10.6609 C.ar      1 <0>        -0.1361 
       7 C7         4.7763    1.6165   10.7469 C.ar      1 <0>        -0.0920 
       8 C8         4.4087    2.3387    9.6052 C.ar      1 <0>        -0.1265 
       9 C9         4.6306    1.7483    8.3552 C.ar      1 <0>         0.1084 
      10 N1         4.3279    2.1760    7.1110 N.pl3     1 <0>        -0.4675 
      11 C10        3.5550    3.4018    6.8160 C.3       1 <0>         0.1242 
      12 C11        2.0791    3.1110    6.9468 C.2       1 <0>         0.4463 
      13 O1         1.4411    3.6365    7.8098 O.2       1 <0>        -0.4704 
      14 O2         1.4812    2.2573    6.0886 O.3       1 <0>        -0.3437 
      15 C12        0.0817    2.0130    6.2516 C.3       1 <0>         0.1567 
      16 C13       -0.3840    1.0370    5.1978 C.2       1 <0>         0.2874 
      17 N2        -1.2156    1.0989    4.1746 N.2       1 <0>        -0.5106 
      18 C14       -1.2577   -0.1377    3.5195 C.2       1 <0>         0.2609 
      19 N3        -0.4795   -0.9514    4.1283 N.2       1 <0>        -0.3200 
      20 O3         0.0985   -0.2697    5.2060 O.3       1 <0>        -0.0928 
      21 C15       -2.0695   -0.4613    2.2881 C.3       1 <0>         0.0037 
      22 C16       -1.2301   -0.2223    1.0559 C.ar      1 <0>        -0.0973 
      23 C17       -1.2311    1.0286    0.4271 C.ar      1 <0>        -0.0995 
      24 C18       -0.4370    1.2593   -0.7025 C.ar      1 <0>        -0.1207 
      25 C19        0.3504    0.2325   -1.2285 C.ar      1 <0>        -0.1122 
      26 C20        0.3480   -1.0241   -0.6116 C.ar      1 <0>        -0.1201 
      27 C21       -0.4460   -1.2504    0.5191 C.ar      1 <0>        -0.1046 
      28 Br1        6.3547   -1.0946    5.9873 Br        1 <0>        -0.0155 
      29 H1         5.2031    2.5313    4.4515 H         1 <0>         0.0903 
      30 H2         3.6789    1.6180    4.4311 H         1 <0>         0.0953 
      31 H3         5.2240    0.7737    4.1909 H         1 <0>         0.0712 
      32 H4         6.1930   -1.1635    9.3617 H         1 <0>         0.1274 
      33 H5         5.6571   -0.1849   11.5542 H         1 <0>         0.1276 
      34 H6         4.5832    2.0524   11.7160 H         1 <0>         0.1296 
      35 H7         3.9801    3.3213    9.7356 H         1 <0>         0.1206 
      36 H8         3.7707    3.7304    5.8016 H         1 <0>         0.1394 
      37 H9         3.8345    4.1852    7.5175 H         1 <0>         0.1404 
      38 H10       -0.4638    2.9486    6.1467 H         1 <0>         0.1240 
      39 H11       -0.1002    1.5952    7.2395 H         1 <0>         0.1139 
      40 H12       -2.9502    0.1766    2.2571 H         1 <0>         0.1085 
      41 H13       -2.3773   -1.5043    2.3213 H         1 <0>         0.1144 
      42 H14       -1.8494    1.8290    0.8055 H         1 <0>         0.1277 
      43 H15       -0.4437    2.2301   -1.1755 H         1 <0>         0.1259 
      44 H16        0.9669    0.4041   -2.0984 H         1 <0>         0.1247 
      45 H17        0.9596   -1.8198   -1.0108 H         1 <0>         0.1255 
      46 H18       -0.4492   -2.2308    0.9723 H         1 <0>         0.1245 
@<TRIPOS>BOND
       1        1        2 1        
       2        1       29 1        
       3        1       30 1        
       4        1       31 1        
       5        2       10 1        
       6        2        3 2        
       7        3        4 1        
       8        3       28 1        
       9        4        9 ar       
      10        4        5 ar       
      11        5        6 ar       
      12        5       32 1        
      13        6        7 ar       
      14        6       33 1        
      15        7        8 ar       
      16        7       34 1        
      17        8        9 ar       
      18        8       35 1        
      19        9       10 1        
      20       10       11 1        
      21       11       12 1        
      22       11       36 1        
      23       11       37 1        
      24       12       13 2        
      25       12       14 1        
      26       14       15 1        
      27       15       16 1        
      28       15       38 1        
      29       15       39 1        
      30       16       20 1        
      31       16       17 2        
      32       17       18 1        
      33       18       19 2        
      34       18       21 1        
      35       19       20 1        
      36       21       22 1        
      37       21       40 1        
      38       21       41 1        
      39       22       27 ar       
      40       22       23 ar       
      41       23       24 ar       
      42       23       42 1        
      43       24       25 ar       
      44       24       43 1        
      45       25       26 ar       
      46       25       44 1        
      47       26       27 ar       
      48       26       45 1        
      49       27       46 1        

