#        scan_R01_S0008_C0000_L00001_S0001_C0002_G0010_E0001.mol2
#        Mon Jun 19 14:12:42 2017
#        Descriptor:     36    19    11     3     2     6
#        Energy - RMSD - RMSD MassCentre:     -50.3514    999.9999    999.9999
#        Receptor:       1  Surface Point:     8  Conformer:     0
#        Ligand:         1  Surface Point:     1  Conformer:     2
#        BUDE Formal Charge: 0
#        ATOM Count: 27
#        Heavy ATOM Count: 17
@<TRIPOS>MOLECULE
pdb1gcz_ligA.pdb_scan_R01_S0008_C0000_L00001_S0001_C0002_G0010_E0001
27 28 1 0 0
SMALL
GASTEIGER
@<TRIPOS>ATOM
       1 C3        -1.6003    6.9084    4.3969 C.3       1 YZ9900      0.0513 
       2 C11       -1.2516    6.0337    3.1962 C.3       1 YZ9900      0.2089 
       3 O1        -0.5055    4.1124    1.5640 O.2       1 YZ9900     -0.2447 
       4 O2        -0.7876    4.7607    3.6535 O.3       1 YZ9900     -0.4453 
       5 C6         1.2821   -0.7094    1.7756 C.ar      1 YZ9900      0.0063 
       6 C5         0.4177    1.5913    2.2521 C.ar      1 YZ9900      0.0160 
       7 C4         1.4341   -1.2630    4.5017 C.ar      1 YZ9900      0.0796 
       8 O3         0.6052    0.9403    5.0190 O.2       1 YZ9900     -0.4208 
       9 C2         0.9010    0.2668    2.7022 C.ar      1 YZ9900      0.0353 
      10 C1         0.9774   -0.0113    4.0721 C.ar      1 YZ9900      0.1519 
      11 C7         0.1509    2.1854    4.5903 C.ar      1 YZ9900      0.3521 
      12 C12       -0.4297    3.8468    2.7266 C.2       1 YZ9900      0.3476 
      13 O4         2.2570   -3.4537    4.0474 O.3       1 YZ9900     -0.2865 
      14 O5        -0.1700    3.0043    5.4358 O.2       1 YZ9900     -0.2442 
      15 C10        1.7380   -1.9596    2.2107 C.ar      1 YZ9900      0.0422 
      16 C9         0.0568    2.5150    3.1506 C.ar      1 YZ9900      0.1515 
      17 C8         1.8167   -2.2439    3.5792 C.ar      1 YZ9900      0.1988 
      18 H31       -0.7119    7.0558    5.0076 H         1 YZ9900      0.0000 
      19 H32       -1.9659    7.8721    4.0487 H         1 YZ9900      0.0000 
      20 H33       -2.3712    6.4198    4.9891 H         1 YZ9900      0.0000 
      21 H112      -0.4707    6.5146    2.6108 H         1 YZ9900      0.0000 
      22 H113      -2.1362    5.8958    2.5780 H         1 YZ9900      0.0000 
      23 H6         1.2258   -0.5020    0.7172 H         1 YZ9900      0.0000 
      24 H5         0.3625    1.7960    1.1931 H         1 YZ9900      0.0000 
      25 H4         1.4912   -1.4729    5.5597 H         1 YZ9900      0.0000 
      26 HO4        2.2628   -3.4696    5.0173 H         1 YZ9900      0.0000 
      27 H10        2.0261   -2.6958    1.4749 H         1 YZ9900      0.0000 
@<TRIPOS>BOND
       1       13       17 1        
       2        7       17 ar       
       3        7       10 ar       
       4        8       10 ar       
       5        8       11 ar       
       6       14       11 2        
       7       17       15 ar       
       8       10        9 ar       
       9       11       16 ar       
      10        2        4 1        
      11        2        1 1        
      12       15        5 ar       
      13        9        5 ar       
      14        9        6 ar       
      15       16        6 ar       
      16       16       12 1        
      17        4       12 1        
      18       12        3 2        
      19       18        1 1        
      20       19        1 1        
      21       20        1 1        
      22       21        2 1        
      23       22        2 1        
      24       23        5 1        
      25       24        6 1        
      26       25        7 1        
      27       26       13 1        
      28       27       15 1        
@<TRIPOS>SUBSTRUCTURE
 1 YZ9900 10 RESIDUE 4 A YZ9900 0 ROOT

