#        scan_R01_S0008_C0000_L00001_S0001_C0003_G0010_E0001.mol2
#        Mon Jun 19 14:41:09 2017
#        Descriptor:     16    19    13     3     3     4
#        Energy - RMSD - RMSD MassCentre:     -61.8607    999.9999    999.9999
#        Receptor:       1  Surface Point:     8  Conformer:     0
#        Ligand:         1  Surface Point:     1  Conformer:     3
#        BUDE Formal Charge: 0
#        ATOM Count: 27
#        Heavy ATOM Count: 17
@<TRIPOS>MOLECULE
pdb1gcz_ligA.pdb_scan_R01_S0008_C0000_L00001_S0001_C0003_G0010_E0001
27 28 1 0 0
SMALL
GASTEIGER
@<TRIPOS>ATOM
       1 C3        -2.8236    5.2408    6.0517 C.3       1 YZ9900      0.0513 
       2 C11       -2.1900    5.8943    4.8269 C.3       1 YZ9900      0.2089 
       3 O1        -0.2976    4.2395    5.5965 O.2       1 YZ9900     -0.2447 
       4 O2        -1.6477    4.8821    3.9747 O.3       1 YZ9900     -0.4453 
       5 C6         2.4601    0.3223    3.7146 C.ar      1 YZ9900      0.0063 
       6 C5         0.8773    2.2230    4.1014 C.ar      1 YZ9900      0.0160 
       7 C4         1.5274    0.0205    1.1068 C.ar      1 YZ9900      0.0796 
       8 O3        -0.0166    1.8440    1.4233 O.2       1 YZ9900     -0.4208 
       9 C2         1.4535    1.1685    3.2374 C.ar      1 YZ9900      0.0353 
      10 C1         0.9847    1.0168    1.9271 C.ar      1 YZ9900      0.1519 
      11 C7        -0.5557    2.8350    2.2404 C.ar      1 YZ9900      0.3521 
      12 C12       -0.6778    4.0867    4.4740 C.2       1 YZ9900      0.3476 
      13 O4         3.0348   -1.7893    0.7391 O.3       1 YZ9900     -0.2865 
      14 O5        -1.4316    3.5485    1.7797 O.2       1 YZ9900     -0.2442 
      15 C10        2.9992   -0.6725    2.8900 C.ar      1 YZ9900      0.0422 
      16 C9        -0.0852    3.0247    3.6306 C.ar      1 YZ9900      0.1515 
      17 C8         2.5348   -0.8292    1.5788 C.ar      1 YZ9900      0.1988 
      18 H31       -2.0641    4.6879    6.6007 H         1 YZ9900      0.0000 
      19 H32       -3.2481    6.0100    6.6936 H         1 YZ9900      0.0000 
      20 H33       -3.6096    4.5595    5.7327 H         1 YZ9900      0.0000 
      21 H112      -1.3944    6.5652    5.1438 H         1 YZ9900      0.0000 
      22 H113      -2.9458    6.4578    4.2840 H         1 YZ9900      0.0000 
      23 H6         2.8266    0.4334    4.7244 H         1 YZ9900      0.0000 
      24 H5         1.2457    2.3319    5.1107 H         1 YZ9900      0.0000 
      25 H4         1.1625   -0.0927    0.0965 H         1 YZ9900      0.0000 
      26 HO4        2.5871   -1.7657   -0.1212 H         1 YZ9900      0.0000 
      27 H10        3.7754   -1.3126    3.2826 H         1 YZ9900      0.0000 
@<TRIPOS>BOND
       1       13       17 1        
       2        7       17 ar       
       3        7       10 ar       
       4        8       10 ar       
       5        8       11 ar       
       6       14       11 2        
       7       17       15 ar       
       8       10        9 ar       
       9       11       16 ar       
      10        2        4 1        
      11        2        1 1        
      12       15        5 ar       
      13        9        5 ar       
      14        9        6 ar       
      15       16        6 ar       
      16       16       12 1        
      17        4       12 1        
      18       12        3 2        
      19       18        1 1        
      20       19        1 1        
      21       20        1 1        
      22       21        2 1        
      23       22        2 1        
      24       23        5 1        
      25       24        6 1        
      26       25        7 1        
      27       26       13 1        
      28       27       15 1        
@<TRIPOS>SUBSTRUCTURE
 1 YZ9900 10 RESIDUE 4 A YZ9900 0 ROOT

