#        scan_R01_S0008_C0000_L00001_S0001_C0003_G0010_E0001.mol2
#        Mon Jun 19 14:12:43 2017
#        Descriptor:     16    18    13     3     3     5
#        Energy - RMSD - RMSD MassCentre:     -57.0717    999.9999    999.9999
#        Receptor:       1  Surface Point:     8  Conformer:     0
#        Ligand:         1  Surface Point:     1  Conformer:     3
#        BUDE Formal Charge: 0
#        ATOM Count: 27
#        Heavy ATOM Count: 17
@<TRIPOS>MOLECULE
pdb1gcz_ligA.pdb_scan_R01_S0008_C0000_L00001_S0001_C0003_G0010_E0001
27 28 1 0 0
SMALL
GASTEIGER
@<TRIPOS>ATOM
       1 C3        -3.2202    5.7133    5.9993 C.3       1 YZ9900      0.0513 
       2 C11       -2.4489    6.2028    4.7769 C.3       1 YZ9900      0.2089 
       3 O1        -0.6666    4.6793    5.9662 O.2       1 YZ9900     -0.2447 
       4 O2        -1.8224    5.0903    4.1328 O.3       1 YZ9900     -0.4453 
       5 C6         2.2545    0.5673    4.9416 C.ar      1 YZ9900      0.0063 
       6 C5         0.6526    2.4907    4.8931 C.ar      1 YZ9900      0.0160 
       7 C4         1.6164   -0.0857    2.3095 C.ar      1 YZ9900      0.0796 
       8 O3         0.0604    1.7521    2.2064 O.2       1 YZ9900     -0.4208 
       9 C2         1.3138    1.3350    4.2468 C.ar      1 YZ9900      0.0353 
      10 C1         0.9931    1.0069    2.9242 C.ar      1 YZ9900      0.1519 
      11 C7        -0.5591    2.8390    2.8190 C.ar      1 YZ9900      0.3521 
      12 C12       -0.9203    4.3757    4.8386 C.2       1 YZ9900      0.3476 
      13 O4         3.1419   -1.9170    2.3564 O.3       1 YZ9900     -0.2865 
      14 O5        -1.3727    3.4782    2.1726 O.2       1 YZ9900     -0.2442 
      15 C10        2.8748   -0.5242    4.3221 C.ar      1 YZ9900      0.0422 
      16 C9        -0.2453    3.2155    4.2154 C.ar      1 YZ9900      0.1515 
      17 C8         2.5585   -0.8575    2.9998 C.ar      1 YZ9900      0.1988 
      18 H31       -2.5308    5.2440    6.6982 H         1 YZ9900      0.0000 
      19 H32       -3.7078    6.5579    6.4816 H         1 YZ9900      0.0000 
      20 H33       -3.9707    4.9899    5.6880 H         1 YZ9900      0.0000 
      21 H112      -1.6886    6.9158    5.0885 H         1 YZ9900      0.0000 
      22 H113      -3.1352    6.6834    4.0828 H         1 YZ9900      0.0000 
      23 H6         2.5068    0.8145    5.9622 H         1 YZ9900      0.0000 
      24 H5         0.9069    2.7356    5.9137 H         1 YZ9900      0.0000 
      25 H4         1.3658   -0.3349    1.2890 H         1 YZ9900      0.0000 
      26 HO4        2.7933   -2.0113    1.4561 H         1 YZ9900      0.0000 
      27 H10        3.5975   -1.1006    4.8806 H         1 YZ9900      0.0000 
@<TRIPOS>BOND
       1       13       17 1        
       2        7       17 ar       
       3        7       10 ar       
       4        8       10 ar       
       5        8       11 ar       
       6       14       11 2        
       7       17       15 ar       
       8       10        9 ar       
       9       11       16 ar       
      10        2        4 1        
      11        2        1 1        
      12       15        5 ar       
      13        9        5 ar       
      14        9        6 ar       
      15       16        6 ar       
      16       16       12 1        
      17        4       12 1        
      18       12        3 2        
      19       18        1 1        
      20       19        1 1        
      21       20        1 1        
      22       21        2 1        
      23       22        2 1        
      24       23        5 1        
      25       24        6 1        
      26       25        7 1        
      27       26       13 1        
      28       27       15 1        
@<TRIPOS>SUBSTRUCTURE
 1 YZ9900 10 RESIDUE 4 A YZ9900 0 ROOT

