#        scan_R01_S0009_C0000_L00001_S0001_C0000_G0010_E0001.mol2
#        Mon Jun 19 14:41:09 2017
#        Descriptor:     36    13    20     3     3     5
#        Energy - RMSD - RMSD MassCentre:     -30.0152    999.9999    999.9999
#        Receptor:       1  Surface Point:     9  Conformer:     0
#        Ligand:         1  Surface Point:     1  Conformer:     0
#        BUDE Formal Charge: 0
#        ATOM Count: 27
#        Heavy ATOM Count: 17
@<TRIPOS>MOLECULE
pdb1gcz_ligA.pdb_scan_R01_S0009_C0000_L00001_S0001_C0000_G0010_E0001
27 28 1 0 0
SMALL
GASTEIGER
@<TRIPOS>ATOM
       1 C3         2.4724    5.5326    4.8228 C.3       1 YZ9900      0.0513 
       2 C11        1.2599    4.6697    4.6203 C.3       1 YZ9900      0.2089 
       3 O1         2.3216    3.8345    1.4769 O.2       1 YZ9900     -0.2447 
       4 O2         0.9991    4.5163    3.1680 O.3       1 YZ9900     -0.4453 
       5 C6         2.5553   -1.3512    2.2538 C.ar      1 YZ9900      0.0063 
       6 C5         2.0550    1.1191    2.1671 C.ar      1 YZ9900      0.0160 
       7 C4        -0.1575   -1.8293    3.2747 C.ar      1 YZ9900      0.0796 
       8 O3        -0.5273    0.5448    3.1496 O.2       1 YZ9900     -0.4208 
       9 C2         1.6439   -0.2885    2.4609 C.ar      1 YZ9900      0.0353 
      10 C1         0.3283   -0.5412    2.9576 C.ar      1 YZ9900      0.1519 
      11 C7        -0.1658    1.7944    2.9666 C.ar      1 YZ9900      0.3521 
      12 C12        1.5417    3.5724    2.3414 C.2       1 YZ9900      0.3476 
      13 O4         0.4545   -4.1371    3.3215 O.3       1 YZ9900     -0.2865 
      14 O5        -0.9363    2.6370    3.2012 O.2       1 YZ9900     -0.2442 
      15 C10        2.1148   -2.6714    2.5608 C.ar      1 YZ9900      0.0422 
      16 C9         1.1802    2.1240    2.4800 C.ar      1 YZ9900      0.1515 
      17 C8         0.8035   -2.8678    3.0501 C.ar      1 YZ9900      0.1988 
      18 H31        3.3292    5.0789    4.3245 H         1 YZ9900      0.0000 
      19 H32        2.2890    6.5211    4.4015 H         1 YZ9900      0.0000 
      20 H33        2.6788    5.6247    5.8891 H         1 YZ9900      0.0000 
      21 H112       0.3979    5.1368    5.0969 H         1 YZ9900      0.0000 
      22 H113       1.4334    3.6892    5.0639 H         1 YZ9900      0.0000 
      23 H6         3.5502   -1.1680    1.8760 H         1 YZ9900      0.0000 
      24 H5         3.0142    1.3363    1.7211 H         1 YZ9900      0.0000 
      25 H4        -1.1539   -2.0129    3.6489 H         1 YZ9900      0.0000 
      26 HO4        0.9204   -4.4370    4.1054 H         1 YZ9900      0.0000 
      27 H10        2.7766   -3.5135    2.4210 H         1 YZ9900      0.0000 
@<TRIPOS>BOND
       1       13       17 1        
       2        7       17 ar       
       3        7       10 ar       
       4        8       10 ar       
       5        8       11 ar       
       6       14       11 2        
       7       17       15 ar       
       8       10        9 ar       
       9       11       16 ar       
      10        2        4 1        
      11        2        1 1        
      12       15        5 ar       
      13        9        5 ar       
      14        9        6 ar       
      15       16        6 ar       
      16       16       12 1        
      17        4       12 1        
      18       12        3 2        
      19       18        1 1        
      20       19        1 1        
      21       20        1 1        
      22       21        2 1        
      23       22        2 1        
      24       23        5 1        
      25       24        6 1        
      26       25        7 1        
      27       26       13 1        
      28       27       15 1        
@<TRIPOS>SUBSTRUCTURE
 1 YZ9900 10 RESIDUE 4 A YZ9900 0 ROOT

