#        scan_R01_S0009_C0000_L00001_S0001_C0002_G0010_E0001.mol2
#        Mon Jun 19 14:12:44 2017
#        Descriptor:      3    24     7     2     3     6
#        Energy - RMSD - RMSD MassCentre:     -36.5674    999.9999    999.9999
#        Receptor:       1  Surface Point:     9  Conformer:     0
#        Ligand:         1  Surface Point:     1  Conformer:     2
#        BUDE Formal Charge: 0
#        ATOM Count: 27
#        Heavy ATOM Count: 17
@<TRIPOS>MOLECULE
pdb1gcz_ligA.pdb_scan_R01_S0009_C0000_L00001_S0001_C0002_G0010_E0001
27 28 1 0 0
SMALL
GASTEIGER
@<TRIPOS>ATOM
       1 C3         1.8482    4.9799    9.9489 C.3       1 YZ9900      0.0513 
       2 C11        2.4132    4.9704    8.5315 C.3       1 YZ9900      0.2089 
       3 O1         2.9547    4.5198    5.9985 O.2       1 YZ9900     -0.2447 
       4 O2         1.7010    4.0142    7.7418 O.3       1 YZ9900     -0.4453 
       5 C6         1.3153    1.5482    2.1291 C.ar      1 YZ9900      0.0063 
       6 C5         1.6956    2.7193    4.3088 C.ar      1 YZ9900      0.0160 
       7 C4        -0.7534    0.0525    3.2449 C.ar      1 YZ9900      0.0796 
       8 O3        -0.4315    1.1480    5.3676 O.2       1 YZ9900     -0.4208 
       9 C2         0.9724    1.7356    3.4723 C.ar      1 YZ9900      0.0353 
      10 C1        -0.0670    0.9840    4.0331 C.ar      1 YZ9900      0.1519 
      11 C7         0.2521    2.0752    6.1508 C.ar      1 YZ9900      0.3521 
      12 C12        2.0633    3.8642    6.4499 C.2       1 YZ9900      0.3476 
      13 O4        -1.1151   -1.0623    1.1691 O.3       1 YZ9900     -0.2865 
      14 O5        -0.0829    2.2031    7.3169 O.2       1 YZ9900     -0.2442 
      15 C10        0.6256    0.6153    1.3454 C.ar      1 YZ9900      0.0422 
      16 C9         1.3561    2.8873    5.5923 C.ar      1 YZ9900      0.1515 
      17 C8        -0.4148   -0.1393    1.9002 C.ar      1 YZ9900      0.1988 
      18 H31        1.9701    3.9944   10.3939 H         1 YZ9900      0.0000 
      19 H32        2.3812    5.7167   10.5461 H         1 YZ9900      0.0000 
      20 H33        0.7911    5.2352    9.9156 H         1 YZ9900      0.0000 
      21 H112       3.4670    4.7014    8.5621 H         1 YZ9900      0.0000 
      22 H113       2.3032    5.9585    8.0898 H         1 YZ9900      0.0000 
      23 H6         2.1161    2.1244    1.6896 H         1 YZ9900      0.0000 
      24 H5         2.4960    3.2942    3.8668 H         1 YZ9900      0.0000 
      25 H4        -1.5546   -0.5250    3.6821 H         1 YZ9900      0.0000 
      26 HO4       -1.7850   -1.5024    1.7154 H         1 YZ9900      0.0000 
      27 H10        0.9099    0.4898    0.3111 H         1 YZ9900      0.0000 
@<TRIPOS>BOND
       1       13       17 1        
       2        7       17 ar       
       3        7       10 ar       
       4        8       10 ar       
       5        8       11 ar       
       6       14       11 2        
       7       17       15 ar       
       8       10        9 ar       
       9       11       16 ar       
      10        2        4 1        
      11        2        1 1        
      12       15        5 ar       
      13        9        5 ar       
      14        9        6 ar       
      15       16        6 ar       
      16       16       12 1        
      17        4       12 1        
      18       12        3 2        
      19       18        1 1        
      20       19        1 1        
      21       20        1 1        
      22       21        2 1        
      23       22        2 1        
      24       23        5 1        
      25       24        6 1        
      26       25        7 1        
      27       26       13 1        
      28       27       15 1        
@<TRIPOS>SUBSTRUCTURE
 1 YZ9900 10 RESIDUE 4 A YZ9900 0 ROOT

