#        scan_R01_S0010_C0000_L00001_S0001_C0000_G0010_E0001.mol2
#        Mon Jun 19 14:41:11 2017
#        Descriptor:     18    11    17     3     3     4
#        Energy - RMSD - RMSD MassCentre:     -27.5562    999.9999    999.9999
#        Receptor:       1  Surface Point:    10  Conformer:     0
#        Ligand:         1  Surface Point:     1  Conformer:     0
#        BUDE Formal Charge: 0
#        ATOM Count: 27
#        Heavy ATOM Count: 17
@<TRIPOS>MOLECULE
pdb1gcz_ligA.pdb_scan_R01_S0010_C0000_L00001_S0001_C0000_G0010_E0001
27 28 1 0 0
SMALL
GASTEIGER
@<TRIPOS>ATOM
       1 C3         0.4578   -2.7180    5.4522 C.3       1 YZ9900      0.0513 
       2 C11        1.0603   -2.4220    4.1086 C.3       1 YZ9900      0.2089 
       3 O1        -1.7719   -0.7569    3.1536 O.2       1 YZ9900     -0.2447 
       4 O2        -0.0223   -2.1753    3.1248 O.3       1 YZ9900     -0.4453 
       5 C6         0.5159    3.8689    2.1962 C.ar      1 YZ9900      0.0063 
       6 C5        -0.1753    1.4600    2.4774 C.ar      1 YZ9900      0.0160 
       7 C4         2.6393    3.0087    0.3573 C.ar      1 YZ9900      0.0796 
       8 O3         1.8945    0.7462    0.6971 O.2       1 YZ9900     -0.4208 
       9 C2         0.7078    2.5046    1.8728 C.ar      1 YZ9900      0.0353 
      10 C1         1.7458    2.1058    0.9757 C.ar      1 YZ9900      0.1519 
      11 C7         1.1783   -0.1943    1.2699 C.ar      1 YZ9900      0.3521 
      12 C12       -0.6332   -0.9785    2.8735 C.2       1 YZ9900      0.3476 
      13 O4         3.1976    5.3248    0.1952 O.3       1 YZ9900     -0.2865 
      14 O5         1.4097   -1.3067    1.0097 O.2       1 YZ9900     -0.2442 
      15 C10        1.3932    4.8211    1.6002 C.ar      1 YZ9900      0.0422 
      16 C9         0.1111    0.1468    2.2196 C.ar      1 YZ9900      0.1515 
      17 C8         2.4045    4.3747    0.7195 C.ar      1 YZ9900      0.1988 
      18 H31       -0.1623   -1.8782    5.7660 H         1 YZ9900      0.0000 
      19 H32       -0.1553   -3.6168    5.3851 H         1 YZ9900      0.0000 
      20 H33        1.2534   -2.8745    6.1806 H         1 YZ9900      0.0000 
      21 H112       1.6595   -3.2726    3.7838 H         1 YZ9900      0.0000 
      22 H113       1.6937   -1.5378    4.1812 H         1 YZ9900      0.0000 
      23 H6        -0.2683    4.1780    2.8712 H         1 YZ9900      0.0000 
      24 H5        -1.0146    1.7339    3.0994 H         1 YZ9900      0.0000 
      25 H4         3.4211    2.6999   -0.3208 H         1 YZ9900      0.0000 
      26 HO4        3.7777    5.6705    0.8775 H         1 YZ9900      0.0000 
      27 H10        1.2863    5.8732    1.8194 H         1 YZ9900      0.0000 
@<TRIPOS>BOND
       1       13       17 1        
       2        7       17 ar       
       3        7       10 ar       
       4        8       10 ar       
       5        8       11 ar       
       6       14       11 2        
       7       17       15 ar       
       8       10        9 ar       
       9       11       16 ar       
      10        2        4 1        
      11        2        1 1        
      12       15        5 ar       
      13        9        5 ar       
      14        9        6 ar       
      15       16        6 ar       
      16       16       12 1        
      17        4       12 1        
      18       12        3 2        
      19       18        1 1        
      20       19        1 1        
      21       20        1 1        
      22       21        2 1        
      23       22        2 1        
      24       23        5 1        
      25       24        6 1        
      26       25        7 1        
      27       26       13 1        
      28       27       15 1        
@<TRIPOS>SUBSTRUCTURE
 1 YZ9900 10 RESIDUE 4 A YZ9900 0 ROOT

