#        1GCZ_R01_S0001_C0000_L00004_S0001_C0002_G0010_E0001.mol2
#        Tue Jun  6 09:55:21 2017
#        Descriptor:     31     3    26    10     4    14
#        Energy - RMSD - RMSD MassCentre:     -63.3157    999.9999    999.9999
#        Receptor:       1  Surface Point:     1  Conformer:     0
#        Ligand:         4  Surface Point:     1  Conformer:     2
#        BUDE Formal Charge: 0
#        ATOM Count: 46
#        Heavy ATOM Count: 28
@<TRIPOS>MOLECULE
ZINC61563277_1GCZ_R01_S0001_C0000_L00004_S0001_C0002_G0010_E0001
 46 49 0 0 0
SMALL
USER_CHARGES
@<TRIPOS>ATOM
       1 C1         4.2833   -4.9361    4.5774 C.3       1 <0>        -0.1051 
       2 C2         4.6817   -5.6833    5.8276 C.2       1 <0>         0.1324 
       3 C3         5.7497   -5.4213    6.5933 C.2       1 <0>        -0.1714 
       4 C4         5.7585   -6.4194    7.7173 C.ar      1 <0>        -0.0773 
       5 C5         6.6074   -6.6801    8.7995 C.ar      1 <0>        -0.0675 
       6 C6         6.2130   -7.7059    9.6670 C.ar      1 <0>        -0.1361 
       7 C7         5.0066   -8.3904    9.4695 C.ar      1 <0>        -0.0920 
       8 C8         4.1658   -8.1074    8.3864 C.ar      1 <0>        -0.1265 
       9 C9         4.5842   -7.1392    7.4658 C.ar      1 <0>         0.1084 
      10 N1         4.0192   -6.7117    6.3165 N.pl3     1 <0>        -0.4675 
      11 C10        2.8043   -7.3024    5.7149 C.3       1 <0>         0.1242 
      12 C11        1.5842   -6.8087    6.4549 C.2       1 <0>         0.4463 
      13 O1         0.9263   -7.5717    7.0976 O.2       1 <0>        -0.4704 
      14 O2         1.2374   -5.5055    6.3901 O.3       1 <0>        -0.3437 
      15 C12        0.0741   -5.0846    7.1073 C.3       1 <0>         0.1567 
      16 C13       -0.1337   -3.6029    6.9025 C.2       1 <0>         0.2874 
      17 N2        -1.0561   -2.8655    6.3130 N.2       1 <0>        -0.5106 
      18 C14       -0.7341   -1.5089    6.4398 C.2       1 <0>         0.2609 
      19 N3         0.3680   -1.4071    7.0828 N.2       1 <0>        -0.3200 
      20 O3         0.8038   -2.6996    7.3981 O.3       1 <0>        -0.0928 
      21 C15       -1.5539   -0.3511    5.9230 C.3       1 <0>         0.0037 
      22 C16       -1.0837    0.0181    4.5363 C.ar      1 <0>        -0.0973 
      23 C17       -0.0751    0.9726    4.3586 C.ar      1 <0>        -0.0995 
      24 C18        0.3781    1.3006    3.0753 C.ar      1 <0>        -0.1207 
      25 C19       -0.1898    0.6921    1.9537 C.ar      1 <0>        -0.1122 
      26 C20       -1.2065   -0.2552    2.1230 C.ar      1 <0>        -0.1201 
      27 C21       -1.6556   -0.5821    3.4081 C.ar      1 <0>        -0.1046 
      28 Br1        7.0240   -4.0589    6.3606 Br        1 <0>        -0.0155 
      29 H1         3.2934   -4.5057    4.7129 H         1 <0>         0.0903 
      30 H2         4.2682   -5.6234    3.7342 H         1 <0>         0.0953 
      31 H3         5.0017   -4.1418    4.3859 H         1 <0>         0.0712 
      32 H4         7.5215   -6.1340    8.9806 H         1 <0>         0.1274 
      33 H5         6.8510   -7.9447   10.5052 H         1 <0>         0.1276 
      34 H6         4.7048   -9.1556   10.1693 H         1 <0>         0.1296 
      35 H7         3.2286   -8.6389    8.3120 H         1 <0>         0.1206 
      36 H8         2.8561   -8.3868    5.7852 H         1 <0>         0.1394 
      37 H9         2.7378   -7.0101    4.6690 H         1 <0>         0.1404 
      38 H10        0.2086   -5.2894    8.1674 H         1 <0>         0.1240 
      39 H11       -0.7941   -5.6275    6.7396 H         1 <0>         0.1139 
      40 H12       -1.4336    0.5025    6.5867 H         1 <0>         0.1085 
      41 H13       -2.6028   -0.6380    5.8864 H         1 <0>         0.1144 
      42 H14        0.3617    1.4702    5.2118 H         1 <0>         0.1277 
      43 H15        1.1597    2.0356    2.9525 H         1 <0>         0.1259 
      44 H16        0.1564    0.9389    0.9609 H         1 <0>         0.1247 
      45 H17       -1.6448   -0.7331    1.2592 H         1 <0>         0.1255 
      46 H18       -2.4526   -1.3022    3.5197 H         1 <0>         0.1245 
@<TRIPOS>BOND
       1        1        2 1        
       2        1       29 1        
       3        1       30 1        
       4        1       31 1        
       5        2       10 1        
       6        2        3 2        
       7        3        4 1        
       8        3       28 1        
       9        4        9 ar       
      10        4        5 ar       
      11        5        6 ar       
      12        5       32 1        
      13        6        7 ar       
      14        6       33 1        
      15        7        8 ar       
      16        7       34 1        
      17        8        9 ar       
      18        8       35 1        
      19        9       10 1        
      20       10       11 1        
      21       11       12 1        
      22       11       36 1        
      23       11       37 1        
      24       12       13 2        
      25       12       14 1        
      26       14       15 1        
      27       15       16 1        
      28       15       38 1        
      29       15       39 1        
      30       16       20 1        
      31       16       17 2        
      32       17       18 1        
      33       18       19 2        
      34       18       21 1        
      35       19       20 1        
      36       21       22 1        
      37       21       40 1        
      38       21       41 1        
      39       22       27 ar       
      40       22       23 ar       
      41       23       24 ar       
      42       23       42 1        
      43       24       25 ar       
      44       24       43 1        
      45       25       26 ar       
      46       25       44 1        
      47       26       27 ar       
      48       26       45 1        
      49       27       46 1        

