#        scan_R01_S0010_C0000_L00001_S0001_C0000_G0010_E0001.mol2
#        Mon Jun 19 14:12:45 2017
#        Descriptor:      8    29    13     3     2     3
#        Energy - RMSD - RMSD MassCentre:     -24.6570    999.9999    999.9999
#        Receptor:       1  Surface Point:    10  Conformer:     0
#        Ligand:         1  Surface Point:     1  Conformer:     0
#        BUDE Formal Charge: 0
#        ATOM Count: 27
#        Heavy ATOM Count: 17
@<TRIPOS>MOLECULE
pdb1gcz_ligA.pdb_scan_R01_S0010_C0000_L00001_S0001_C0000_G0010_E0001
27 28 1 0 0
SMALL
GASTEIGER
@<TRIPOS>ATOM
       1 C3         3.7108   -0.5678   -3.2854 C.3       1 YZ9900      0.0513 
       2 C11        3.0300   -1.3478   -2.1972 C.3       1 YZ9900      0.2089 
       3 O1         4.2899    0.7720    0.1745 O.2       1 YZ9900     -0.2447 
       4 O2         3.7350   -1.1217   -0.9117 O.3       1 YZ9900     -0.4453 
       5 C6        -0.3239    2.3436    2.1218 C.ar      1 YZ9900      0.0063 
       6 C5         1.6745    1.1605    1.1387 C.ar      1 YZ9900      0.0160 
       7 C4        -1.5402   -0.2669    2.7020 C.ar      1 YZ9900      0.0796 
       8 O3         0.4145   -1.2910    1.7433 O.2       1 YZ9900     -0.4208 
       9 C2         0.3328    1.1323    1.7988 C.ar      1 YZ9900      0.0353 
      10 C1        -0.2747   -0.1278    2.0895 C.ar      1 YZ9900      0.1519 
      11 C7         1.5596   -1.2915    1.0997 C.ar      1 YZ9900      0.3521 
      12 C12        3.5053   -0.1040   -0.0282 C.2       1 YZ9900      0.3476 
      13 O4        -3.3747    0.9796    3.5870 O.3       1 YZ9900     -0.2865 
      14 O5         2.0350   -2.3156    0.8099 O.2       1 YZ9900     -0.2442 
      15 C10       -1.6055    2.2584    2.7396 C.ar      1 YZ9900      0.0422 
      16 C9         2.2259   -0.0302    0.7499 C.ar      1 YZ9900      0.1515 
      17 C8        -2.1629    0.9871    3.0055 C.ar      1 YZ9900      0.1988 
      18 H31        3.7107    0.4915   -3.0284 H         1 YZ9900      0.0000 
      19 H32        4.7384   -0.9153   -3.3926 H         1 YZ9900      0.0000 
      20 H33        3.1780   -0.7140   -4.2249 H         1 YZ9900      0.0000 
      21 H112       3.0532   -2.4096   -2.4424 H         1 YZ9900      0.0000 
      22 H113       1.9949   -1.0182   -2.1069 H         1 YZ9900      0.0000 
      23 H6         0.1304    3.2995    1.9077 H         1 YZ9900      0.0000 
      24 H5         2.1932    2.0932    0.9736 H         1 YZ9900      0.0000 
      25 H4        -1.9928   -1.2229    2.9196 H         1 YZ9900      0.0000 
      26 HO4       -4.0357    1.2697    2.9542 H         1 YZ9900      0.0000 
      27 H10       -2.1453    3.1563    3.0019 H         1 YZ9900      0.0000 
@<TRIPOS>BOND
       1       13       17 1        
       2        7       17 ar       
       3        7       10 ar       
       4        8       10 ar       
       5        8       11 ar       
       6       14       11 2        
       7       17       15 ar       
       8       10        9 ar       
       9       11       16 ar       
      10        2        4 1        
      11        2        1 1        
      12       15        5 ar       
      13        9        5 ar       
      14        9        6 ar       
      15       16        6 ar       
      16       16       12 1        
      17        4       12 1        
      18       12        3 2        
      19       18        1 1        
      20       19        1 1        
      21       20        1 1        
      22       21        2 1        
      23       22        2 1        
      24       23        5 1        
      25       24        6 1        
      26       25        7 1        
      27       26       13 1        
      28       27       15 1        
@<TRIPOS>SUBSTRUCTURE
 1 YZ9900 10 RESIDUE 4 A YZ9900 0 ROOT

