#        scan_R01_S0010_C0000_L00001_S0001_C0002_G0010_E0001.mol2
#        Mon Jun 19 14:41:11 2017
#        Descriptor:     23     5    21     3     1     5
#        Energy - RMSD - RMSD MassCentre:     -30.6376    999.9999    999.9999
#        Receptor:       1  Surface Point:    10  Conformer:     0
#        Ligand:         1  Surface Point:     1  Conformer:     2
#        BUDE Formal Charge: 0
#        ATOM Count: 27
#        Heavy ATOM Count: 17
@<TRIPOS>MOLECULE
pdb1gcz_ligA.pdb_scan_R01_S0010_C0000_L00001_S0001_C0002_G0010_E0001
27 28 1 0 0
SMALL
GASTEIGER
@<TRIPOS>ATOM
       1 C3         4.9792    0.5693   -3.0290 C.3       1 YZ9900      0.0513 
       2 C11        4.3265   -0.7301   -2.5662 C.3       1 YZ9900      0.2089 
       3 O1         3.0214   -2.6216   -1.2892 O.2       1 YZ9900     -0.2447 
       4 O2         3.6583   -0.5099   -1.3213 O.3       1 YZ9900     -0.4453 
       5 C6         0.2959   -3.2437    3.0323 C.ar      1 YZ9900      0.0063 
       6 C5         1.6701   -2.3939    1.1200 C.ar      1 YZ9900      0.0160 
       7 C4         0.3280   -0.7279    4.2287 C.ar      1 YZ9900      0.0796 
       8 O3         1.6518    0.1442    2.4132 O.2       1 YZ9900     -0.4208 
       9 C2         0.9714   -2.1894    2.4086 C.ar      1 YZ9900      0.0353 
      10 C1         0.9877   -0.9252    3.0098 C.ar      1 YZ9900      0.1519 
      11 C7         2.3078   -0.0533    1.2003 C.ar      1 YZ9900      0.3521 
      12 C12        3.0182   -1.5538   -0.7528 C.2       1 YZ9900      0.3476 
      13 O4        -0.9806   -1.5377    6.0494 O.3       1 YZ9900     -0.2865 
      14 O5         2.8833    0.8963    0.6949 O.2       1 YZ9900     -0.2442 
      15 C10       -0.3622   -3.0408    4.2512 C.ar      1 YZ9900      0.0422 
      16 C9         2.3121   -1.3756    0.5355 C.ar      1 YZ9900      0.1515 
      17 C8        -0.3498   -1.7791    4.8575 C.ar      1 YZ9900      0.1988 
      18 H31        5.7094    0.8911   -2.2892 H         1 YZ9900      0.0000 
      19 H32        5.4763    0.4050   -3.9826 H         1 YZ9900      0.0000 
      20 H33        4.2164    1.3365   -3.1442 H         1 YZ9900      0.0000 
      21 H112       5.0901   -1.4943   -2.4369 H         1 YZ9900      0.0000 
      22 H113       3.6051   -1.0597   -3.3109 H         1 YZ9900      0.0000 
      23 H6         0.2791   -4.2216    2.5744 H         1 YZ9900      0.0000 
      24 H5         1.6517   -3.3729    0.6643 H         1 YZ9900      0.0000 
      25 H4         0.3432    0.2492    4.6887 H         1 YZ9900      0.0000 
      26 HO4       -0.8545   -0.6174    6.3290 H         1 YZ9900      0.0000 
      27 H10       -0.8764   -3.8713    4.7120 H         1 YZ9900      0.0000 
@<TRIPOS>BOND
       1       13       17 1        
       2        7       17 ar       
       3        7       10 ar       
       4        8       10 ar       
       5        8       11 ar       
       6       14       11 2        
       7       17       15 ar       
       8       10        9 ar       
       9       11       16 ar       
      10        2        4 1        
      11        2        1 1        
      12       15        5 ar       
      13        9        5 ar       
      14        9        6 ar       
      15       16        6 ar       
      16       16       12 1        
      17        4       12 1        
      18       12        3 2        
      19       18        1 1        
      20       19        1 1        
      21       20        1 1        
      22       21        2 1        
      23       22        2 1        
      24       23        5 1        
      25       24        6 1        
      26       25        7 1        
      27       26       13 1        
      28       27       15 1        
@<TRIPOS>SUBSTRUCTURE
 1 YZ9900 10 RESIDUE 4 A YZ9900 0 ROOT

