#        scan_R01_S0010_C0000_L00001_S0001_C0003_G0010_E0001.mol2
#        Mon Jun 19 14:41:12 2017
#        Descriptor:      9     5    15     3     1     4
#        Energy - RMSD - RMSD MassCentre:     -29.6557    999.9999    999.9999
#        Receptor:       1  Surface Point:    10  Conformer:     0
#        Ligand:         1  Surface Point:     1  Conformer:     3
#        BUDE Formal Charge: 0
#        ATOM Count: 27
#        Heavy ATOM Count: 17
@<TRIPOS>MOLECULE
pdb1gcz_ligA.pdb_scan_R01_S0010_C0000_L00001_S0001_C0003_G0010_E0001
27 28 1 0 0
SMALL
GASTEIGER
@<TRIPOS>ATOM
       1 C3         5.0873   -0.1856   -3.6260 C.3       1 YZ9900      0.0513 
       2 C11        5.4423   -1.3594   -2.7178 C.3       1 YZ9900      0.2089 
       3 O1         4.7505    0.4829   -0.9745 O.2       1 YZ9900     -0.2447 
       4 O2         4.4004   -1.5497   -1.7570 O.3       1 YZ9900     -0.4453 
       5 C6         1.3808    1.1566    2.8572 C.ar      1 YZ9900      0.0063 
       6 C5         2.7697    0.3057    0.9561 C.ar      1 YZ9900      0.0160 
       7 C4        -0.0305   -1.2433    2.9561 C.ar      1 YZ9900      0.0796 
       8 O3         1.2764   -2.1141    1.1277 O.2       1 YZ9900     -0.4208 
       9 C2         1.6955    0.1313    1.9591 C.ar      1 YZ9900      0.0353 
      10 C1         0.9863   -1.0747    2.0087 C.ar      1 YZ9900      0.1519 
      11 C7         2.2884   -1.9451    0.1855 C.ar      1 YZ9900      0.3521 
      12 C12        4.1284   -0.5353   -0.9087 C.2       1 YZ9900      0.3476 
      13 O4        -1.3528   -0.4325    4.7664 O.3       1 YZ9900     -0.2865 
      14 O5         2.5264   -2.8677   -0.5764 O.2       1 YZ9900     -0.2442 
      15 C10        0.3630    0.9826    3.8026 C.ar      1 YZ9900      0.0422 
      16 C9         3.0591   -0.6844    0.1035 C.ar      1 YZ9900      0.1515 
      17 C8        -0.3499   -0.2209    3.8574 C.ar      1 YZ9900      0.1988 
      18 H31        4.9901    0.7182   -3.0281 H         1 YZ9900      0.0000 
      19 H32        5.8736   -0.0493   -4.3655 H         1 YZ9900      0.0000 
      20 H33        4.1455   -0.3904   -4.1307 H         1 YZ9900      0.0000 
      21 H112       6.3768   -1.1498   -2.2018 H         1 YZ9900      0.0000 
      22 H113       5.5520   -2.2614   -3.3161 H         1 YZ9900      0.0000 
      23 H6         1.9236    2.0897    2.8248 H         1 YZ9900      0.0000 
      24 H5         3.3110    1.2398    0.9259 H         1 YZ9900      0.0000 
      25 H4        -0.5749   -2.1756    2.9906 H         1 YZ9900      0.0000 
      26 HO4       -1.7473   -1.3110    4.6501 H         1 YZ9900      0.0000 
      27 H10        0.1397    1.7898    4.4846 H         1 YZ9900      0.0000 
@<TRIPOS>BOND
       1       13       17 1        
       2        7       17 ar       
       3        7       10 ar       
       4        8       10 ar       
       5        8       11 ar       
       6       14       11 2        
       7       17       15 ar       
       8       10        9 ar       
       9       11       16 ar       
      10        2        4 1        
      11        2        1 1        
      12       15        5 ar       
      13        9        5 ar       
      14        9        6 ar       
      15       16        6 ar       
      16       16       12 1        
      17        4       12 1        
      18       12        3 2        
      19       18        1 1        
      20       19        1 1        
      21       20        1 1        
      22       21        2 1        
      23       22        2 1        
      24       23        5 1        
      25       24        6 1        
      26       25        7 1        
      27       26       13 1        
      28       27       15 1        
@<TRIPOS>SUBSTRUCTURE
 1 YZ9900 10 RESIDUE 4 A YZ9900 0 ROOT

