#        scan_R01_S0010_C0000_L00001_S0001_C0003_G0010_E0001.mol2
#        Mon Jun 19 14:12:46 2017
#        Descriptor:      5    13     4     3     1     5
#        Energy - RMSD - RMSD MassCentre:     -27.1895    999.9999    999.9999
#        Receptor:       1  Surface Point:    10  Conformer:     0
#        Ligand:         1  Surface Point:     1  Conformer:     3
#        BUDE Formal Charge: 0
#        ATOM Count: 27
#        Heavy ATOM Count: 17
@<TRIPOS>MOLECULE
pdb1gcz_ligA.pdb_scan_R01_S0010_C0000_L00001_S0001_C0003_G0010_E0001
27 28 1 0 0
SMALL
GASTEIGER
@<TRIPOS>ATOM
       1 C3         5.4800   -1.0107   -2.3806 C.3       1 YZ9900      0.0513 
       2 C11        4.2291   -0.1565   -2.5662 C.3       1 YZ9900      0.2089 
       3 O1         3.2723   -2.2460   -1.2892 O.2       1 YZ9900     -0.2447 
       4 O2         3.5328   -0.0557   -1.3213 O.3       1 YZ9900     -0.4453 
       5 C6         0.6962   -3.3318    3.0323 C.ar      1 YZ9900      0.0063 
       6 C5         1.9019   -2.2564    1.1200 C.ar      1 YZ9900      0.0160 
       7 C4         0.2910   -0.8487    4.2287 C.ar      1 YZ9900      0.0796 
       8 O3         1.4432    0.2400    2.4132 O.2       1 YZ9900     -0.4208 
       9 C2         1.1784   -2.1763    2.4086 C.ar      1 YZ9900      0.0353 
      10 C1         0.9749   -0.9285    3.0098 C.ar      1 YZ9900      0.1519 
      11 C7         2.1236    0.1594    1.2003 C.ar      1 YZ9900      0.3521 
      12 C12        3.0837   -1.1949   -0.7528 C.2       1 YZ9900      0.3476 
      13 O4        -0.8571   -1.8734    6.0494 O.3       1 YZ9900     -0.2865 
      14 O5         2.5253    1.1946    0.6949 O.2       1 YZ9900     -0.2442 
      15 C10        0.0129   -3.2463    4.2512 C.ar      1 YZ9900      0.0422 
      16 C9         2.3574   -1.1420    0.5355 C.ar      1 YZ9900      0.1515 
      17 C8        -0.1940   -2.0016    4.8575 C.ar      1 YZ9900      0.1988 
      18 H31        5.1920   -2.0086   -2.0562 H         1 YZ9900      0.0000 
      19 H32        6.0168   -1.0764   -3.3246 H         1 YZ9900      0.0000 
      20 H33        6.1212   -0.5551   -1.6290 H         1 YZ9900      0.0000 
      21 H112       3.5804   -0.6185   -3.3074 H         1 YZ9900      0.0000 
      22 H113       4.5149    0.8378   -2.9027 H         1 YZ9900      0.0000 
      23 H6         0.8495   -4.2979    2.5744 H         1 YZ9900      0.0000 
      24 H5         2.0538   -3.2237    0.6643 H         1 YZ9900      0.0000 
      25 H4         0.1363    0.1162    4.6887 H         1 YZ9900      0.0000 
      26 HO4       -0.8927   -0.9452    6.3290 H         1 YZ9900      0.0000 
      27 H10       -0.3493   -4.1535    4.7120 H         1 YZ9900      0.0000 
@<TRIPOS>BOND
       1       13       17 1        
       2        7       17 ar       
       3        7       10 ar       
       4        8       10 ar       
       5        8       11 ar       
       6       14       11 2        
       7       17       15 ar       
       8       10        9 ar       
       9       11       16 ar       
      10        2        4 1        
      11        2        1 1        
      12       15        5 ar       
      13        9        5 ar       
      14        9        6 ar       
      15       16        6 ar       
      16       16       12 1        
      17        4       12 1        
      18       12        3 2        
      19       18        1 1        
      20       19        1 1        
      21       20        1 1        
      22       21        2 1        
      23       22        2 1        
      24       23        5 1        
      25       24        6 1        
      26       25        7 1        
      27       26       13 1        
      28       27       15 1        
@<TRIPOS>SUBSTRUCTURE
 1 YZ9900 10 RESIDUE 4 A YZ9900 0 ROOT

