#        scan_R01_S0011_C0000_L00001_S0001_C0000_G0010_E0001.mol2
#        Mon Jun 19 14:41:12 2017
#        Descriptor:     17     2     6     1     3     5
#        Energy - RMSD - RMSD MassCentre:     -38.1919    999.9999    999.9999
#        Receptor:       1  Surface Point:    11  Conformer:     0
#        Ligand:         1  Surface Point:     1  Conformer:     0
#        BUDE Formal Charge: 0
#        ATOM Count: 27
#        Heavy ATOM Count: 17
@<TRIPOS>MOLECULE
pdb1gcz_ligA.pdb_scan_R01_S0011_C0000_L00001_S0001_C0000_G0010_E0001
27 28 1 0 0
SMALL
GASTEIGER
@<TRIPOS>ATOM
       1 C3        -2.2065    5.9339    2.5142 C.3       1 YZ9900      0.0513 
       2 C11       -2.6953    4.6434    3.1069 C.3       1 YZ9900      0.2089 
       3 O1        -1.8486    2.9576    0.2526 O.2       1 YZ9900     -0.2447 
       4 O2        -3.0378    3.6970    2.0170 O.3       1 YZ9900     -0.4453 
       5 C6         1.4999   -0.4107    2.4864 C.ar      1 YZ9900      0.0063 
       6 C5        -0.3605    1.1570    1.8222 C.ar      1 YZ9900      0.0160 
       7 C4        -0.2175   -1.4933    4.6098 C.ar      1 YZ9900      0.0796 
       8 O3        -1.9236    0.0432    3.8907 O.2       1 YZ9900     -0.4208 
       9 C2         0.1842    0.0685    2.6912 C.ar      1 YZ9900      0.0353 
      10 C1        -0.6362   -0.4712    3.7290 C.ar      1 YZ9900      0.1519 
      11 C7        -2.3978    1.0462    3.1874 C.ar      1 YZ9900      0.3521 
      12 C12       -2.1808    2.8345    1.3922 C.2       1 YZ9900      0.3476 
      13 O4         1.6302   -2.9091    5.1427 O.3       1 YZ9900     -0.2865 
      14 O5        -3.4683    1.4390    3.4294 O.2       1 YZ9900     -0.2442 
      15 C10        1.9721   -1.4411    3.3506 C.ar      1 YZ9900      0.0422 
      16 C9        -1.5968    1.6618    2.1213 C.ar      1 YZ9900      0.1515 
      17 C8         1.1209   -1.9405    4.3623 C.ar      1 YZ9900      0.1988 
      18 H31       -1.3365    5.7397    1.8867 H         1 YZ9900      0.0000 
      19 H32       -2.9976    6.3787    1.9104 H         1 YZ9900      0.0000 
      20 H33       -1.9312    6.6202    3.3150 H         1 YZ9900      0.0000 
      21 H112      -3.5806    4.8345    3.7135 H         1 YZ9900      0.0000 
      22 H113      -1.9134    4.2109    3.7313 H         1 YZ9900      0.0000 
      23 H6         2.1247   -0.0096    1.7023 H         1 YZ9900      0.0000 
      24 H5         0.2054    1.5337    0.9831 H         1 YZ9900      0.0000 
      25 H4        -0.8437   -1.8972    5.3915 H         1 YZ9900      0.0000 
      26 HO4        2.2980   -2.5356    5.7224 H         1 YZ9900      0.0000 
      27 H10        2.9704   -1.8362    3.2336 H         1 YZ9900      0.0000 
@<TRIPOS>BOND
       1       13       17 1        
       2        7       17 ar       
       3        7       10 ar       
       4        8       10 ar       
       5        8       11 ar       
       6       14       11 2        
       7       17       15 ar       
       8       10        9 ar       
       9       11       16 ar       
      10        2        4 1        
      11        2        1 1        
      12       15        5 ar       
      13        9        5 ar       
      14        9        6 ar       
      15       16        6 ar       
      16       16       12 1        
      17        4       12 1        
      18       12        3 2        
      19       18        1 1        
      20       19        1 1        
      21       20        1 1        
      22       21        2 1        
      23       22        2 1        
      24       23        5 1        
      25       24        6 1        
      26       25        7 1        
      27       26       13 1        
      28       27       15 1        
@<TRIPOS>SUBSTRUCTURE
 1 YZ9900 10 RESIDUE 4 A YZ9900 0 ROOT

