#        scan_R01_S0011_C0000_L00001_S0001_C0002_G0010_E0001.mol2
#        Mon Jun 19 14:41:13 2017
#        Descriptor:     14    10    29     1     2     6
#        Energy - RMSD - RMSD MassCentre:     -37.5994    999.9999    999.9999
#        Receptor:       1  Surface Point:    11  Conformer:     0
#        Ligand:         1  Surface Point:     1  Conformer:     2
#        BUDE Formal Charge: 0
#        ATOM Count: 27
#        Heavy ATOM Count: 17
@<TRIPOS>MOLECULE
pdb1gcz_ligA.pdb_scan_R01_S0011_C0000_L00001_S0001_C0002_G0010_E0001
27 28 1 0 0
SMALL
GASTEIGER
@<TRIPOS>ATOM
       1 C3        -0.9480   -1.9978   -3.1169 C.3       1 YZ9900      0.0513 
       2 C11       -1.3413   -2.7686   -1.8600 C.3       1 YZ9900      0.2089 
       3 O1        -1.8698   -3.5664    0.5887 O.2       1 YZ9900     -0.2447 
       4 O2        -1.1780   -1.9272   -0.7153 O.3       1 YZ9900     -0.4453 
       5 C6        -1.7587   -1.7333    5.3968 C.ar      1 YZ9900      0.0063 
       6 C5        -1.6190   -2.0938    2.9233 C.ar      1 YZ9900      0.0160 
       7 C4        -0.8443    0.8827    5.1100 C.ar      1 YZ9900      0.0796 
       8 O3        -0.6902    0.5916    2.7224 O.2       1 YZ9900     -0.4208 
       9 C2        -1.4577   -1.2413    4.1223 C.ar      1 YZ9900      0.0353 
      10 C1        -0.9982    0.0732    3.9781 C.ar      1 YZ9900      0.1519 
      11 C7        -0.8437   -0.2147    1.5969 C.ar      1 YZ9900      0.3521 
      12 C12       -1.4796   -2.4407    0.4963 C.2       1 YZ9900      0.3476 
      13 O4        -0.9775    1.2254    7.4653 O.3       1 YZ9900     -0.2865 
      14 O5        -0.5684    0.2587    0.5067 O.2       1 YZ9900     -0.2442 
      15 C10       -1.6030   -0.9195    6.5253 C.ar      1 YZ9900      0.0422 
      16 C9        -1.3269   -1.6089    1.7107 C.ar      1 YZ9900      0.1515 
      17 C8        -1.1439    0.3958    6.3878 C.ar      1 YZ9900      0.1988 
      18 H31        0.0956   -1.6980   -3.0460 H         1 YZ9900      0.0000 
      19 H32       -1.0849   -2.6337   -3.9891 H         1 YZ9900      0.0000 
      20 H33       -1.5745   -1.1133   -3.2102 H         1 YZ9900      0.0000 
      21 H112      -0.7060   -3.6459   -1.7580 H         1 YZ9900      0.0000 
      22 H113      -2.3811   -3.0798   -1.9352 H         1 YZ9900      0.0000 
      23 H6        -2.1137   -2.7463    5.5157 H         1 YZ9900      0.0000 
      24 H5        -1.9742   -3.1065    3.0451 H         1 YZ9900      0.0000 
      25 H4        -0.4895    1.8961    4.9937 H         1 YZ9900      0.0000 
      26 HO4       -0.6370    2.0905    7.1884 H         1 YZ9900      0.0000 
      27 H10       -1.8423   -1.3234    7.4979 H         1 YZ9900      0.0000 
@<TRIPOS>BOND
       1       13       17 1        
       2        7       17 ar       
       3        7       10 ar       
       4        8       10 ar       
       5        8       11 ar       
       6       14       11 2        
       7       17       15 ar       
       8       10        9 ar       
       9       11       16 ar       
      10        2        4 1        
      11        2        1 1        
      12       15        5 ar       
      13        9        5 ar       
      14        9        6 ar       
      15       16        6 ar       
      16       16       12 1        
      17        4       12 1        
      18       12        3 2        
      19       18        1 1        
      20       19        1 1        
      21       20        1 1        
      22       21        2 1        
      23       22        2 1        
      24       23        5 1        
      25       24        6 1        
      26       25        7 1        
      27       26       13 1        
      28       27       15 1        
@<TRIPOS>SUBSTRUCTURE
 1 YZ9900 10 RESIDUE 4 A YZ9900 0 ROOT

