#        scan_R01_S0011_C0000_L00001_S0001_C0002_G0010_E0001.mol2
#        Mon Jun 19 14:12:47 2017
#        Descriptor:     28    36    33     1     3     5
#        Energy - RMSD - RMSD MassCentre:     -38.7999    999.9999    999.9999
#        Receptor:       1  Surface Point:    11  Conformer:     0
#        Ligand:         1  Surface Point:     1  Conformer:     2
#        BUDE Formal Charge: 0
#        ATOM Count: 27
#        Heavy ATOM Count: 17
@<TRIPOS>MOLECULE
pdb1gcz_ligA.pdb_scan_R01_S0011_C0000_L00001_S0001_C0002_G0010_E0001
27 28 1 0 0
SMALL
GASTEIGER
@<TRIPOS>ATOM
       1 C3        -6.9092    5.4408    3.0752 C.3       1 YZ9900      0.0513 
       2 C11       -5.4265    5.7380    3.2802 C.3       1 YZ9900      0.2089 
       3 O1        -2.8122    5.6408    3.5406 O.2       1 YZ9900     -0.2447 
       4 O2        -4.6775    4.5256    3.1619 O.3       1 YZ9900     -0.4453 
       5 C6         0.9968    2.1830    3.3794 C.ar      1 YZ9900      0.0063 
       6 C5        -1.1896    3.4021    3.3471 C.ar      1 YZ9900      0.0160 
       7 C4        -0.2920   -0.2295    2.8502 C.ar      1 YZ9900      0.0796 
       8 O3        -2.4247    0.8925    2.8078 O.2       1 YZ9900     -0.4208 
       9 C2        -0.3937    2.1599    3.2287 C.ar      1 YZ9900      0.0353 
      10 C1        -1.0414    0.9476    2.9629 C.ar      1 YZ9900      0.1519 
      11 C7        -3.1694    2.0644    2.9201 C.ar      1 YZ9900      0.3521 
      12 C12       -3.3377    4.5917    3.3141 C.2       1 YZ9900      0.3476 
      13 O4         1.7902   -1.3898    2.8811 O.3       1 YZ9900     -0.2865 
      14 O5        -4.3793    1.9940    2.7808 O.2       1 YZ9900     -0.2442 
      15 C10        1.7414    1.0029    3.2658 C.ar      1 YZ9900      0.0422 
      16 C9        -2.5192    3.3639    3.2005 C.ar      1 YZ9900      0.1515 
      17 C8         1.0998   -0.2125    3.0000 C.ar      1 YZ9900      0.1988 
      18 H31       -7.2471    4.7419    3.8376 H         1 YZ9900      0.0000 
      19 H32       -7.4776    6.3653    3.1521 H         1 YZ9900      0.0000 
      20 H33       -7.0579    5.0037    2.0901 H         1 YZ9900      0.0000 
      21 H112      -5.2745    6.1622    4.2706 H         1 YZ9900      0.0000 
      22 H113      -5.0903    6.4464    2.5261 H         1 YZ9900      0.0000 
      23 H6         1.5033    3.1145    3.5847 H         1 YZ9900      0.0000 
      24 H5        -0.6805    4.3322    3.5524 H         1 YZ9900      0.0000 
      25 H4        -0.7962   -1.1624    2.6449 H         1 YZ9900      0.0000 
      26 HO4        1.1870   -2.1310    2.7147 H         1 YZ9900      0.0000 
      27 H10        2.8137    1.0480    3.3864 H         1 YZ9900      0.0000 
@<TRIPOS>BOND
       1       13       17 1        
       2        7       17 ar       
       3        7       10 ar       
       4        8       10 ar       
       5        8       11 ar       
       6       14       11 2        
       7       17       15 ar       
       8       10        9 ar       
       9       11       16 ar       
      10        2        4 1        
      11        2        1 1        
      12       15        5 ar       
      13        9        5 ar       
      14        9        6 ar       
      15       16        6 ar       
      16       16       12 1        
      17        4       12 1        
      18       12        3 2        
      19       18        1 1        
      20       19        1 1        
      21       20        1 1        
      22       21        2 1        
      23       22        2 1        
      24       23        5 1        
      25       24        6 1        
      26       25        7 1        
      27       26       13 1        
      28       27       15 1        
@<TRIPOS>SUBSTRUCTURE
 1 YZ9900 10 RESIDUE 4 A YZ9900 0 ROOT

