#        scan_R01_S0011_C0000_L00001_S0001_C0003_G0010_E0001.mol2
#        Mon Jun 19 14:41:13 2017
#        Descriptor:     24    35    33     1     2     5
#        Energy - RMSD - RMSD MassCentre:     -37.3056    999.9999    999.9999
#        Receptor:       1  Surface Point:    11  Conformer:     0
#        Ligand:         1  Surface Point:     1  Conformer:     3
#        BUDE Formal Charge: 0
#        ATOM Count: 27
#        Heavy ATOM Count: 17
@<TRIPOS>MOLECULE
pdb1gcz_ligA.pdb_scan_R01_S0011_C0000_L00001_S0001_C0003_G0010_E0001
27 28 1 0 0
SMALL
GASTEIGER
@<TRIPOS>ATOM
       1 C3        -4.9467    5.7300    3.7821 C.3       1 YZ9900      0.0513 
       2 C11       -5.6264    4.5508    3.0921 C.3       1 YZ9900      0.2089 
       3 O1        -3.1901    4.4192    2.1127 O.2       1 YZ9900     -0.2447 
       4 O2        -4.8012    3.3891    3.2124 O.3       1 YZ9900     -0.4453 
       5 C6         0.7153    1.0807    1.8081 C.ar      1 YZ9900      0.0063 
       6 C5        -1.4442    2.2704    2.2421 C.ar      1 YZ9900      0.0160 
       7 C4        -0.2217   -1.1893    3.1237 C.ar      1 YZ9900      0.0796 
       8 O3        -2.3210   -0.0924    3.5698 O.2       1 YZ9900     -0.4208 
       9 C2        -0.5725    1.0796    2.3543 C.ar      1 YZ9900      0.0353 
      10 C1        -1.0434   -0.0609    3.0155 C.ar      1 YZ9900      0.1519 
      11 C7        -3.1377    1.0308    3.4615 C.ar      1 YZ9900      0.3521 
      12 C12       -3.5651    3.4316    2.6713 C.2       1 YZ9900      0.3476 
      13 O4         1.8349   -2.3216    2.7102 O.3       1 YZ9900     -0.2865 
      14 O5        -4.2529    0.9823    3.9538 O.2       1 YZ9900     -0.2442 
      15 C10        1.5329   -0.0504    1.9192 C.ar      1 YZ9900      0.0422 
      16 C9        -2.6738    2.2542    2.7699 C.ar      1 YZ9900      0.1515 
      17 C8         1.0679   -1.1941    2.5791 C.ar      1 YZ9900      0.1988 
      18 H31       -3.9895    5.9267    3.3037 H         1 YZ9900      0.0000 
      19 H32       -5.5806    6.6106    3.7022 H         1 YZ9900      0.0000 
      20 H33       -4.7863    5.4919    4.8315 H         1 YZ9900      0.0000 
      21 H112      -5.7746    4.7821    2.0394 H         1 YZ9900      0.0000 
      22 H113      -6.5893    4.3610    3.5615 H         1 YZ9900      0.0000 
      23 H6         1.0854    1.9570    1.2967 H         1 YZ9900      0.0000 
      24 H5        -1.0717    3.1454    1.7301 H         1 YZ9900      0.0000 
      25 H4        -0.5894   -2.0669    3.6346 H         1 YZ9900      0.0000 
      26 HO4        1.3626   -3.0070    3.2083 H         1 YZ9900      0.0000 
      27 H10        2.5230   -0.0238    1.4888 H         1 YZ9900      0.0000 
@<TRIPOS>BOND
       1       13       17 1        
       2        7       17 ar       
       3        7       10 ar       
       4        8       10 ar       
       5        8       11 ar       
       6       14       11 2        
       7       17       15 ar       
       8       10        9 ar       
       9       11       16 ar       
      10        2        4 1        
      11        2        1 1        
      12       15        5 ar       
      13        9        5 ar       
      14        9        6 ar       
      15       16        6 ar       
      16       16       12 1        
      17        4       12 1        
      18       12        3 2        
      19       18        1 1        
      20       19        1 1        
      21       20        1 1        
      22       21        2 1        
      23       22        2 1        
      24       23        5 1        
      25       24        6 1        
      26       25        7 1        
      27       26       13 1        
      28       27       15 1        
@<TRIPOS>SUBSTRUCTURE
 1 YZ9900 10 RESIDUE 4 A YZ9900 0 ROOT

