#        1GCZ_R01_S0001_C0000_L00004_S0001_C0002_G0010_E0001.mol2
#        Tue Jun  6 14:05:14 2017
#        Descriptor:     32    18    35    11     4    14
#        Energy - RMSD - RMSD MassCentre:     -59.6004    999.9999    999.9999
#        Receptor:       1  Surface Point:     1  Conformer:     0
#        Ligand:         4  Surface Point:     1  Conformer:     2
#        BUDE Formal Charge: 0
#        ATOM Count: 46
#        Heavy ATOM Count: 28
@<TRIPOS>MOLECULE
ZINC61563277_1GCZ_R01_S0001_C0000_L00004_S0001_C0002_G0010_E0001
 46 49 0 0 0
SMALL
USER_CHARGES
@<TRIPOS>ATOM
       1 C1         3.7098   -1.4504    7.0533 C.3       1 <0>        -0.1051 
       2 C2         2.5924   -0.8635    6.2247 C.2       1 <0>         0.1324 
       3 C3         2.7390   -0.0390    5.1785 C.2       1 <0>        -0.1714 
       4 C4         1.3650    0.3001    4.6715 C.ar      1 <0>        -0.0773 
       5 C5         0.8629    1.1143    3.6494 C.ar      1 <0>        -0.0675 
       6 C6        -0.5265    1.1117    3.4771 C.ar      1 <0>        -0.1361 
       7 C7        -1.3472    0.2952    4.2663 C.ar      1 <0>        -0.0920 
       8 C8        -0.8245   -0.5205    5.2771 C.ar      1 <0>        -0.1265 
       9 C9         0.5543   -0.4696    5.5146 C.ar      1 <0>         0.1084 
      10 N1         1.3129   -1.0869    6.4453 N.pl3     1 <0>        -0.4675 
      11 C10        0.7737   -1.9240    7.5386 C.3       1 <0>         0.1242 
      12 C11        0.3997   -3.2825    6.9960 C.2       1 <0>         0.4463 
      13 O1        -0.7469   -3.6176    6.9636 O.2       1 <0>        -0.4704 
      14 O2         1.3609   -4.1178    6.5476 O.3       1 <0>        -0.3437 
      15 C12        0.9587   -5.3938    6.0429 C.3       1 <0>         0.1567 
      16 C13        2.1781   -6.1649    5.5970 C.2       1 <0>         0.2874 
      17 N2         2.7808   -7.2676    6.0010 N.2       1 <0>        -0.5106 
      18 C14        3.8951   -7.5246    5.1934 C.2       1 <0>         0.2609 
      19 N3         3.9886   -6.5973    4.3159 N.2       1 <0>        -0.3200 
      20 O3         2.9339   -5.7002    4.5231 O.3       1 <0>        -0.0928 
      21 C15        4.8266   -8.7063    5.3179 C.3       1 <0>         0.0037 
      22 C16        5.9869   -8.3394    6.2121 C.ar      1 <0>        -0.0973 
      23 C17        7.1548   -7.7890    5.6708 C.ar      1 <0>        -0.0995 
      24 C18        8.2233   -7.4275    6.4999 C.ar      1 <0>        -0.1207 
      25 C19        8.1427   -7.6341    7.8788 C.ar      1 <0>        -0.1122 
      26 C20        6.9823   -8.1942    8.4260 C.ar      1 <0>        -0.1201 
      27 C21        5.9149   -8.5526    7.5939 C.ar      1 <0>        -0.1046 
      28 Br1        4.3432    0.5942    4.4305 Br        1 <0>        -0.0155 
      29 H1         3.6712   -2.5361    6.9959 H         1 <0>         0.0903 
      30 H2         3.5956   -1.1371    8.0889 H         1 <0>         0.0953 
      31 H3         4.6663   -1.1003    6.6711 H         1 <0>         0.0712 
      32 H4         1.4903    1.7200    3.0121 H         1 <0>         0.1274 
      33 H5        -0.9508    1.7392    2.7073 H         1 <0>         0.1276 
      34 H6        -2.4134    0.2830    4.0949 H         1 <0>         0.1296 
      35 H7        -1.5028   -1.1596    5.8226 H         1 <0>         0.1206 
      36 H8        -0.1090   -1.4464    7.9586 H         1 <0>         0.1394 
      37 H9         1.5276   -2.0378    8.3148 H         1 <0>         0.1404 
      38 H10        0.2883   -5.2537    5.1974 H         1 <0>         0.1240 
      39 H11        0.4450   -5.9474    6.8260 H         1 <0>         0.1139 
      40 H12        5.1992   -8.9790    4.3328 H         1 <0>         0.1085 
      41 H13        4.2882   -9.5479    5.7486 H         1 <0>         0.1144 
      42 H14        7.2453   -7.6414    4.6048 H         1 <0>         0.1277 
      43 H15        9.1170   -7.0000    6.0699 H         1 <0>         0.1259 
      44 H16        8.9624   -7.3557    8.5245 H         1 <0>         0.1247 
      45 H17        6.9125   -8.3505    9.4925 H         1 <0>         0.1255 
      46 H18        5.0342   -8.9994    8.0307 H         1 <0>         0.1245 
@<TRIPOS>BOND
       1        1        2 1        
       2        1       29 1        
       3        1       30 1        
       4        1       31 1        
       5        2       10 1        
       6        2        3 2        
       7        3        4 1        
       8        3       28 1        
       9        4        9 ar       
      10        4        5 ar       
      11        5        6 ar       
      12        5       32 1        
      13        6        7 ar       
      14        6       33 1        
      15        7        8 ar       
      16        7       34 1        
      17        8        9 ar       
      18        8       35 1        
      19        9       10 1        
      20       10       11 1        
      21       11       12 1        
      22       11       36 1        
      23       11       37 1        
      24       12       13 2        
      25       12       14 1        
      26       14       15 1        
      27       15       16 1        
      28       15       38 1        
      29       15       39 1        
      30       16       20 1        
      31       16       17 2        
      32       17       18 1        
      33       18       19 2        
      34       18       21 1        
      35       19       20 1        
      36       21       22 1        
      37       21       40 1        
      38       21       41 1        
      39       22       27 ar       
      40       22       23 ar       
      41       23       24 ar       
      42       23       42 1        
      43       24       25 ar       
      44       24       43 1        
      45       25       26 ar       
      46       25       44 1        
      47       26       27 ar       
      48       26       45 1        
      49       27       46 1        

