#        scan_R01_S0011_C0000_L00001_S0001_C0003_G0010_E0001.mol2
#        Mon Jun 19 14:12:47 2017
#        Descriptor:      9    18    14     1     3     5
#        Energy - RMSD - RMSD MassCentre:     -39.4907    999.9999    999.9999
#        Receptor:       1  Surface Point:    11  Conformer:     0
#        Ligand:         1  Surface Point:     1  Conformer:     3
#        BUDE Formal Charge: 0
#        ATOM Count: 27
#        Heavy ATOM Count: 17
@<TRIPOS>MOLECULE
pdb1gcz_ligA.pdb_scan_R01_S0011_C0000_L00001_S0001_C0003_G0010_E0001
27 28 1 0 0
SMALL
GASTEIGER
@<TRIPOS>ATOM
       1 C3        -4.0770    7.1703    4.2167 C.3       1 YZ9900      0.0513 
       2 C11       -4.5237    6.4500    2.9478 C.3       1 YZ9900      0.2089 
       3 O1        -1.9489    5.9206    2.9918 O.2       1 YZ9900     -0.2447 
       4 O2        -4.0032    5.1180    2.9485 O.3       1 YZ9900     -0.4453 
       5 C6         1.1945    1.8452    3.0224 C.ar      1 YZ9900      0.0063 
       6 C5        -0.7502    3.4216    2.9971 C.ar      1 YZ9900      0.0160 
       7 C4        -0.5260   -0.3454    2.9759 C.ar      1 YZ9900      0.0796 
       8 O3        -2.4353    1.1253    2.9506 O.2       1 YZ9900     -0.4208 
       9 C2        -0.1888    2.0522    2.9982 C.ar      1 YZ9900      0.0353 
      10 C1        -1.0534    0.9515    2.9749 C.ar      1 YZ9900      0.1519 
      11 C7        -2.9589    2.4162    2.9496 C.ar      1 YZ9900      0.3521 
      12 C12       -2.6623    4.9622    2.9722 C.2       1 YZ9900      0.3476 
      13 O4         1.3262   -1.8460    3.0000 O.3       1 YZ9900     -0.2865 
      14 O5        -4.1718    2.5462    2.9281 O.2       1 YZ9900     -0.2442 
      15 C10        1.7165    0.5462    3.0233 C.ar      1 YZ9900      0.0422 
      16 C9        -2.0758    3.6035    2.9739 C.ar      1 YZ9900      0.1515 
      17 C8         0.8573   -0.5587    3.0000 C.ar      1 YZ9900      0.1988 
      18 H31       -2.9902    7.2168    4.2430 H         1 YZ9900      0.0000 
      19 H32       -4.4841    8.1793    4.2226 H         1 YZ9900      0.0000 
      20 H33       -4.4386    6.6276    5.0875 H         1 YZ9900      0.0000 
      21 H112      -4.1507    6.9839    2.0764 H         1 YZ9900      0.0000 
      22 H113      -5.6105    6.4138    2.9141 H         1 YZ9900      0.0000 
      23 H6         1.8677    2.6896    3.0405 H         1 YZ9900      0.0000 
      24 H5        -0.0748    4.2641    3.0152 H         1 YZ9900      0.0000 
      25 H4        -1.1971   -1.1915    2.9578 H         1 YZ9900      0.0000 
      26 HO4        0.5940   -2.4823    3.0000 H         1 YZ9900      0.0000 
      27 H10        2.7882    0.4137    3.0422 H         1 YZ9900      0.0000 
@<TRIPOS>BOND
       1       13       17 1        
       2        7       17 ar       
       3        7       10 ar       
       4        8       10 ar       
       5        8       11 ar       
       6       14       11 2        
       7       17       15 ar       
       8       10        9 ar       
       9       11       16 ar       
      10        2        4 1        
      11        2        1 1        
      12       15        5 ar       
      13        9        5 ar       
      14        9        6 ar       
      15       16        6 ar       
      16       16       12 1        
      17        4       12 1        
      18       12        3 2        
      19       18        1 1        
      20       19        1 1        
      21       20        1 1        
      22       21        2 1        
      23       22        2 1        
      24       23        5 1        
      25       24        6 1        
      26       25        7 1        
      27       26       13 1        
      28       27       15 1        
@<TRIPOS>SUBSTRUCTURE
 1 YZ9900 10 RESIDUE 4 A YZ9900 0 ROOT

