#        scan_R01_S0012_C0000_L00001_S0001_C0000_G0010_E0001.mol2
#        Mon Jun 19 14:41:14 2017
#        Descriptor:      6    14     1     3     3     5
#        Energy - RMSD - RMSD MassCentre:     -61.5140    999.9999    999.9999
#        Receptor:       1  Surface Point:    12  Conformer:     0
#        Ligand:         1  Surface Point:     1  Conformer:     0
#        BUDE Formal Charge: 0
#        ATOM Count: 27
#        Heavy ATOM Count: 17
@<TRIPOS>MOLECULE
pdb1gcz_ligA.pdb_scan_R01_S0012_C0000_L00001_S0001_C0000_G0010_E0001
27 28 1 0 0
SMALL
GASTEIGER
@<TRIPOS>ATOM
       1 C3         0.7302   -1.9004    7.1893 C.3       1 YZ9900      0.0513 
       2 C11        1.4522   -0.7200    6.6051 C.3       1 YZ9900      0.2089 
       3 O1         1.7682   -2.3380    3.6070 O.2       1 YZ9900     -0.2447 
       4 O2         2.2837   -1.1660    5.4604 O.3       1 YZ9900     -0.4453 
       5 C6        -0.7917    1.2113    0.7090 C.ar      1 YZ9900      0.0063 
       6 C5         0.6025   -0.1098    2.3433 C.ar      1 YZ9900      0.0160 
       7 C4         0.6919    3.6344    1.4555 C.ar      1 YZ9900      0.0796 
       8 O3         1.9635    2.2781    2.9827 O.2       1 YZ9900     -0.4208 
       9 C2         0.2446    1.1779    1.6722 C.ar      1 YZ9900      0.0353 
      10 C1         0.9553    2.3671    2.0216 C.ar      1 YZ9900      0.1519 
      11 C7         2.2473    1.1746    3.6364 C.ar      1 YZ9900      0.3521 
      12 C12        1.8775   -1.2864    4.1606 C.2       1 YZ9900      0.3476 
      13 O4        -0.7091    4.7655   -0.1131 O.3       1 YZ9900     -0.2865 
      14 O5         3.0738    1.2108    4.4576 O.2       1 YZ9900     -0.2442 
      15 C10       -1.0987    2.4671    0.1089 C.ar      1 YZ9900      0.0422 
      16 C9         1.5376   -0.0772    3.3421 C.ar      1 YZ9900      0.1515 
      17 C8        -0.3661    3.6141    0.4899 C.ar      1 YZ9900      0.1988 
      18 H31        0.1102   -2.3640    6.4218 H         1 YZ9900      0.0000 
      19 H32        1.4569   -2.6255    7.5558 H         1 YZ9900      0.0000 
      20 H33        0.0999   -1.5688    8.0144 H         1 YZ9900      0.0000 
      21 H112       2.0916   -0.2724    7.3659 H         1 YZ9900      0.0000 
      22 H113       0.7259    0.0166    6.2614 H         1 YZ9900      0.0000 
      23 H6        -1.3312    0.3160    0.4378 H         1 YZ9900      0.0000 
      24 H5         0.1366   -1.0384    2.0485 H         1 YZ9900      0.0000 
      25 H4         1.2341    4.5291    1.7239 H         1 YZ9900      0.0000 
      26 HO4       -1.5638    5.0560    0.2134 H         1 YZ9900      0.0000 
      27 H10       -1.8834    2.5414   -0.6294 H         1 YZ9900      0.0000 
@<TRIPOS>BOND
       1       13       17 1        
       2        7       17 ar       
       3        7       10 ar       
       4        8       10 ar       
       5        8       11 ar       
       6       14       11 2        
       7       17       15 ar       
       8       10        9 ar       
       9       11       16 ar       
      10        2        4 1        
      11        2        1 1        
      12       15        5 ar       
      13        9        5 ar       
      14        9        6 ar       
      15       16        6 ar       
      16       16       12 1        
      17        4       12 1        
      18       12        3 2        
      19       18        1 1        
      20       19        1 1        
      21       20        1 1        
      22       21        2 1        
      23       22        2 1        
      24       23        5 1        
      25       24        6 1        
      26       25        7 1        
      27       26       13 1        
      28       27       15 1        
@<TRIPOS>SUBSTRUCTURE
 1 YZ9900 10 RESIDUE 4 A YZ9900 0 ROOT

