#        scan_R01_S0012_C0000_L00001_S0001_C0000_G0010_E0001.mol2
#        Mon Jun 19 14:12:48 2017
#        Descriptor:      6     2    13     2     3     4
#        Energy - RMSD - RMSD MassCentre:     -61.5606    999.9999    999.9999
#        Receptor:       1  Surface Point:    12  Conformer:     0
#        Ligand:         1  Surface Point:     1  Conformer:     0
#        BUDE Formal Charge: 0
#        ATOM Count: 27
#        Heavy ATOM Count: 17
@<TRIPOS>MOLECULE
pdb1gcz_ligA.pdb_scan_R01_S0012_C0000_L00001_S0001_C0000_G0010_E0001
27 28 1 0 0
SMALL
GASTEIGER
@<TRIPOS>ATOM
       1 C3        -0.4271    5.8798    0.5717 C.3       1 YZ9900      0.0513 
       2 C11       -0.6020    4.4748    0.0705 C.3       1 YZ9900      0.2089 
       3 O1         2.3393    3.5337    1.5433 O.2       1 YZ9900     -0.2447 
       4 O2         0.7206    3.8065    0.0007 O.3       1 YZ9900     -0.4453 
       5 C6         0.3223   -0.1919    4.6418 C.ar      1 YZ9900      0.0063 
       6 C5         0.9622    1.4463    2.8343 C.ar      1 YZ9900      0.0160 
       7 C4        -1.1191   -1.7857    2.6388 C.ar      1 YZ9900      0.0796 
       8 O3        -0.4501   -0.1614    0.9947 O.2       1 YZ9900     -0.4208 
       9 C2         0.2753    0.1953    3.2814 C.ar      1 YZ9900      0.0353 
      10 C1        -0.4305   -0.5935    2.3217 C.ar      1 YZ9900      0.1519 
      11 C7         0.0845    0.9688    0.5918 C.ar      1 YZ9900      0.3521 
      12 C12        1.3457    3.1363    1.0152 C.2       1 YZ9900      0.3476 
      13 O4        -1.6659   -3.2454    4.4479 O.3       1 YZ9900     -0.2865 
      14 O5        -0.0264    1.2688   -0.5291 O.2       1 YZ9900     -0.2442 
      15 C10       -0.3590   -1.3868    5.0148 C.ar      1 YZ9900      0.0422 
      16 C9         0.8038    1.8377    1.5325 C.ar      1 YZ9900      0.1515 
      17 C8        -1.0430   -2.1311    4.0271 C.ar      1 YZ9900      0.1988 
      18 H31        0.0453    5.8597    1.5539 H         1 YZ9900      0.0000 
      19 H32        0.2020    6.4372   -0.1224 H         1 YZ9900      0.0000 
      20 H33       -1.4014    6.3626    0.6468 H         1 YZ9900      0.0000 
      21 H112      -1.0508    4.4966   -0.9226 H         1 YZ9900      0.0000 
      22 H113      -1.2518    3.9244    0.7509 H         1 YZ9900      0.0000 
      23 H6         0.8562    0.3978    5.3722 H         1 YZ9900      0.0000 
      24 H5         1.5655    2.0240    3.5187 H         1 YZ9900      0.0000 
      25 H4        -1.6498   -2.3774    1.9077 H         1 YZ9900      0.0000 
      26 HO4       -2.4348   -3.0051    4.9699 H         1 YZ9900      0.0000 
      27 H10       -0.3527   -1.7203    6.0421 H         1 YZ9900      0.0000 
@<TRIPOS>BOND
       1       13       17 1        
       2        7       17 ar       
       3        7       10 ar       
       4        8       10 ar       
       5        8       11 ar       
       6       14       11 2        
       7       17       15 ar       
       8       10        9 ar       
       9       11       16 ar       
      10        2        4 1        
      11        2        1 1        
      12       15        5 ar       
      13        9        5 ar       
      14        9        6 ar       
      15       16        6 ar       
      16       16       12 1        
      17        4       12 1        
      18       12        3 2        
      19       18        1 1        
      20       19        1 1        
      21       20        1 1        
      22       21        2 1        
      23       22        2 1        
      24       23        5 1        
      25       24        6 1        
      26       25        7 1        
      27       26       13 1        
      28       27       15 1        
@<TRIPOS>SUBSTRUCTURE
 1 YZ9900 10 RESIDUE 4 A YZ9900 0 ROOT

