#        scan_R01_S0012_C0000_L00001_S0001_C0002_G0010_E0001.mol2
#        Mon Jun 19 14:41:14 2017
#        Descriptor:     25    15     8     3     3     4
#        Energy - RMSD - RMSD MassCentre:     -66.8540    999.9999    999.9999
#        Receptor:       1  Surface Point:    12  Conformer:     0
#        Ligand:         1  Surface Point:     1  Conformer:     2
#        BUDE Formal Charge: 0
#        ATOM Count: 27
#        Heavy ATOM Count: 17
@<TRIPOS>MOLECULE
pdb1gcz_ligA.pdb_scan_R01_S0012_C0000_L00001_S0001_C0002_G0010_E0001
27 28 1 0 0
SMALL
GASTEIGER
@<TRIPOS>ATOM
       1 C3         1.3394    7.5862   -1.3394 C.3       1 YZ9900      0.0513 
       2 C11        0.2439    6.9443   -0.4931 C.3       1 YZ9900      0.2089 
       3 O1        -1.2416    5.3684    0.9976 O.2       1 YZ9900     -0.2447 
       4 O2         0.6690    5.6464   -0.0693 O.3       1 YZ9900     -0.4453 
       5 C6        -1.0240    0.7030    3.1603 C.ar      1 YZ9900      0.0063 
       6 C5        -0.5989    2.8339    1.9168 C.ar      1 YZ9900      0.0160 
       7 C4         1.4757   -0.2783    2.4185 C.ar      1 YZ9900      0.0796 
       8 O3         1.9385    1.7523    1.2053 O.2       1 YZ9900     -0.4208 
       9 C2        -0.1801    1.4877    2.3672 C.ar      1 YZ9900      0.0353 
      10 C1         1.0760    0.9947    1.9944 C.ar      1 YZ9900      0.1519 
      11 C7         1.5398    3.0187    0.7839 C.ar      1 YZ9900      0.3521 
      12 C12       -0.1755    4.9216    0.6950 C.2       1 YZ9900      0.3476 
      13 O4         1.0704   -2.3071    3.6028 O.3       1 YZ9900     -0.2865 
      14 O5         2.3102    3.6656    0.0937 O.2       1 YZ9900     -0.2442 
      15 C10       -0.6192   -0.5693    3.5816 C.ar      1 YZ9900      0.0422 
      16 C9         0.2195    3.5727    1.1584 C.ar      1 YZ9900      0.1515 
      17 C8         0.6355   -1.0680    3.2123 C.ar      1 YZ9900      0.1988 
      18 H31        1.5248    6.9718   -2.2181 H         1 YZ9900      0.0000 
      19 H32        1.0212    8.5789   -1.6508 H         1 YZ9900      0.0000 
      20 H33        2.2516    7.6646   -0.7519 H         1 YZ9900      0.0000 
      21 H112      -0.6650    6.8523   -1.0840 H         1 YZ9900      0.0000 
      22 H113       0.0487    7.5641    0.3795 H         1 YZ9900      0.0000 
      23 H6        -1.9944    1.0768    3.4517 H         1 YZ9900      0.0000 
      24 H5        -1.5699    3.2052    2.2097 H         1 YZ9900      0.0000 
      25 H4         2.4457   -0.6543    2.1284 H         1 YZ9900      0.0000 
      26 HO4        1.9514   -2.4953    3.2431 H         1 YZ9900      0.0000 
      27 H10       -1.2895   -1.1549    4.1933 H         1 YZ9900      0.0000 
@<TRIPOS>BOND
       1       13       17 1        
       2        7       17 ar       
       3        7       10 ar       
       4        8       10 ar       
       5        8       11 ar       
       6       14       11 2        
       7       17       15 ar       
       8       10        9 ar       
       9       11       16 ar       
      10        2        4 1        
      11        2        1 1        
      12       15        5 ar       
      13        9        5 ar       
      14        9        6 ar       
      15       16        6 ar       
      16       16       12 1        
      17        4       12 1        
      18       12        3 2        
      19       18        1 1        
      20       19        1 1        
      21       20        1 1        
      22       21        2 1        
      23       22        2 1        
      24       23        5 1        
      25       24        6 1        
      26       25        7 1        
      27       26       13 1        
      28       27       15 1        
@<TRIPOS>SUBSTRUCTURE
 1 YZ9900 10 RESIDUE 4 A YZ9900 0 ROOT

