#        scan_R01_S0012_C0000_L00001_S0001_C0002_G0010_E0001.mol2
#        Mon Jun 19 14:12:49 2017
#        Descriptor:      4     2    25     2     3     3
#        Energy - RMSD - RMSD MassCentre:     -66.4216    999.9999    999.9999
#        Receptor:       1  Surface Point:    12  Conformer:     0
#        Ligand:         1  Surface Point:     1  Conformer:     2
#        BUDE Formal Charge: 0
#        ATOM Count: 27
#        Heavy ATOM Count: 17
@<TRIPOS>MOLECULE
pdb1gcz_ligA.pdb_scan_R01_S0012_C0000_L00001_S0001_C0002_G0010_E0001
27 28 1 0 0
SMALL
GASTEIGER
@<TRIPOS>ATOM
       1 C3         1.9643    7.8902   -0.8197 C.3       1 YZ9900      0.0513 
       2 C11        1.0525    7.3642    0.2850 C.3       1 YZ9900      0.2089 
       3 O1        -0.3686    5.9068    1.9489 O.2       1 YZ9900     -0.2447 
       4 O2         1.0013    5.9365    0.2202 O.3       1 YZ9900     -0.4453 
       5 C6        -1.4422    0.9557    2.8571 C.ar      1 YZ9900      0.0063 
       6 C5        -0.5958    3.1447    1.9857 C.ar      1 YZ9900      0.0160 
       7 C4        -0.0020   -0.4239    0.9119 C.ar      1 YZ9900      0.0796 
       8 O3         0.8438    1.6541    0.0312 O.2       1 YZ9900     -0.4208 
       9 C2        -0.6638    1.6671    1.9379 C.ar      1 YZ9900      0.0353 
      10 C1         0.0599    0.9739    0.9604 C.ar      1 YZ9900      0.1519 
      11 C7         0.9046    3.0449    0.0804 C.ar      1 YZ9900      0.3521 
      12 C12        0.2382    5.2884    1.1259 C.2       1 YZ9900      0.3476 
      13 O4        -0.8083   -2.5081    1.7421 O.3       1 YZ9900     -0.2865 
      14 O5         1.5969    3.6210   -0.7425 O.2       1 YZ9900     -0.2442 
      15 C10       -1.5005   -0.4421    2.8041 C.ar      1 YZ9900      0.0422 
      16 C9         0.1532    3.8112    1.0994 C.ar      1 YZ9900      0.1515 
      17 C8        -0.7792   -1.1412    1.8292 C.ar      1 YZ9900      0.1988 
      18 H31        1.5663    7.5955   -1.7886 H         1 YZ9900      0.0000 
      19 H32        2.0136    8.9755   -0.7621 H         1 YZ9900      0.0000 
      20 H33        2.9617    7.4740   -0.6948 H         1 YZ9900      0.0000 
      21 H112       0.0511    7.7686    0.1530 H         1 YZ9900      0.0000 
      22 H113       1.4425    7.6688    1.2538 H         1 YZ9900      0.0000 
      23 H6        -2.0032    1.4837    3.6140 H         1 YZ9900      0.0000 
      24 H5        -1.1577    3.6702    2.7437 H         1 YZ9900      0.0000 
      25 H4         0.5581   -0.9544    0.1560 H         1 YZ9900      0.0000 
      26 HO4       -0.2667   -2.8205    1.0005 H         1 YZ9900      0.0000 
      27 H10       -2.1089   -0.9674    3.5255 H         1 YZ9900      0.0000 
@<TRIPOS>BOND
       1       13       17 1        
       2        7       17 ar       
       3        7       10 ar       
       4        8       10 ar       
       5        8       11 ar       
       6       14       11 2        
       7       17       15 ar       
       8       10        9 ar       
       9       11       16 ar       
      10        2        4 1        
      11        2        1 1        
      12       15        5 ar       
      13        9        5 ar       
      14        9        6 ar       
      15       16        6 ar       
      16       16       12 1        
      17        4       12 1        
      18       12        3 2        
      19       18        1 1        
      20       19        1 1        
      21       20        1 1        
      22       21        2 1        
      23       22        2 1        
      24       23        5 1        
      25       24        6 1        
      26       25        7 1        
      27       26       13 1        
      28       27       15 1        
@<TRIPOS>SUBSTRUCTURE
 1 YZ9900 10 RESIDUE 4 A YZ9900 0 ROOT

