#        scan_R01_S0012_C0000_L00001_S0001_C0003_G0010_E0001.mol2
#        Mon Jun 19 14:12:50 2017
#        Descriptor:      6     4    24     2     3     4
#        Energy - RMSD - RMSD MassCentre:     -76.9910    999.9999    999.9999
#        Receptor:       1  Surface Point:    12  Conformer:     0
#        Ligand:         1  Surface Point:     1  Conformer:     3
#        BUDE Formal Charge: 0
#        ATOM Count: 27
#        Heavy ATOM Count: 17
@<TRIPOS>MOLECULE
pdb1gcz_ligA.pdb_scan_R01_S0012_C0000_L00001_S0001_C0003_G0010_E0001
27 28 1 0 0
SMALL
GASTEIGER
@<TRIPOS>ATOM
       1 C3        -0.0635    6.8680   -1.8188 C.3       1 YZ9900      0.0513 
       2 C11        1.2873    6.4855   -1.2207 C.3       1 YZ9900      0.2089 
       3 O1        -0.3662    5.8300    0.7153 O.2       1 YZ9900     -0.2447 
       4 O2         1.2103    5.1651   -0.6772 O.3       1 YZ9900     -0.4453 
       5 C6        -1.6646    1.7040    3.5048 C.ar      1 YZ9900      0.0063 
       6 C5        -0.6628    3.3402    1.8964 C.ar      1 YZ9900      0.0160 
       7 C4        -0.0253   -0.3255    2.5272 C.ar      1 YZ9900      0.0796 
       8 O3         0.9743    1.2064    0.9576 O.2       1 YZ9900     -0.4208 
       9 C2        -0.7600    1.9812    2.4744 C.ar      1 YZ9900      0.0353 
      10 C1         0.0637    0.9614    1.9830 C.ar      1 YZ9900      0.1519 
      11 C7         1.0620    2.4871    0.4170 C.ar      1 YZ9900      0.3521 
      12 C12        0.3241    4.9399    0.3161 C.2       1 YZ9900      0.3476 
      13 O4        -0.9796   -1.8830    4.0590 O.3       1 YZ9900     -0.2865 
      14 O5         1.8659    2.6802   -0.4802 O.2       1 YZ9900     -0.2442 
      15 C10       -1.7495    0.4153    4.0453 C.ar      1 YZ9900      0.0422 
      16 C9         0.2074    3.5898    0.9109 C.ar      1 YZ9900      0.1515 
      17 C8        -0.9286   -0.6087    3.5585 C.ar      1 YZ9900      0.1988 
      18 H31       -0.8223    6.8517   -1.0392 H         1 YZ9900      0.0000 
      19 H32       -0.0011    7.8674   -2.2443 H         1 YZ9900      0.0000 
      20 H33       -0.3284    6.1572   -2.5986 H         1 YZ9900      0.0000 
      21 H112       1.5469    7.1875   -0.4311 H         1 YZ9900      0.0000 
      22 H113       2.0493    6.5136   -1.9968 H         1 YZ9900      0.0000 
      23 H6        -2.3032    2.4857    3.8888 H         1 YZ9900      0.0000 
      24 H5        -1.3027    4.1200    2.2824 H         1 YZ9900      0.0000 
      25 H4         0.6123   -1.1089    2.1449 H         1 YZ9900      0.0000 
      26 HO4       -0.3568   -2.4638    3.5944 H         1 YZ9900      0.0000 
      27 H10       -2.4562    0.2277    4.8402 H         1 YZ9900      0.0000 
@<TRIPOS>BOND
       1       13       17 1        
       2        7       17 ar       
       3        7       10 ar       
       4        8       10 ar       
       5        8       11 ar       
       6       14       11 2        
       7       17       15 ar       
       8       10        9 ar       
       9       11       16 ar       
      10        2        4 1        
      11        2        1 1        
      12       15        5 ar       
      13        9        5 ar       
      14        9        6 ar       
      15       16        6 ar       
      16       16       12 1        
      17        4       12 1        
      18       12        3 2        
      19       18        1 1        
      20       19        1 1        
      21       20        1 1        
      22       21        2 1        
      23       22        2 1        
      24       23        5 1        
      25       24        6 1        
      26       25        7 1        
      27       26       13 1        
      28       27       15 1        
@<TRIPOS>SUBSTRUCTURE
 1 YZ9900 10 RESIDUE 4 A YZ9900 0 ROOT

