#        scan_R01_S0013_C0000_L00001_S0001_C0000_G0010_E0001.mol2
#        Mon Jun 19 14:41:15 2017
#        Descriptor:     16    26    14     1     1     5
#        Energy - RMSD - RMSD MassCentre:     -36.6976    999.9999    999.9999
#        Receptor:       1  Surface Point:    13  Conformer:     0
#        Ligand:         1  Surface Point:     1  Conformer:     0
#        BUDE Formal Charge: 0
#        ATOM Count: 27
#        Heavy ATOM Count: 17
@<TRIPOS>MOLECULE
pdb1gcz_ligA.pdb_scan_R01_S0013_C0000_L00001_S0001_C0000_G0010_E0001
27 28 1 0 0
SMALL
GASTEIGER
@<TRIPOS>ATOM
       1 C3        -0.8637   -5.2411    0.1663 C.3       1 YZ9900      0.0513 
       2 C11       -1.7697   -4.4274    1.0455 C.3       1 YZ9900      0.2089 
       3 O1         0.7513   -3.9889    3.3167 O.2       1 YZ9900     -0.2447 
       4 O2        -1.2688   -4.4653    2.4414 O.3       1 YZ9900     -0.4453 
       5 C6         0.8418    1.2562    3.1445 C.ar      1 YZ9900      0.0063 
       6 C5         0.3210   -1.2111    3.1766 C.ar      1 YZ9900      0.0160 
       7 C4        -1.9912    1.8256    3.6738 C.ar      1 YZ9900      0.0796 
       8 O3        -2.3746   -0.5496    3.6853 O.2       1 YZ9900     -0.4208 
       9 C2        -0.1070    0.2170    3.2947 C.ar      1 YZ9900      0.0353 
      10 C1        -1.4806    0.5140    3.5525 C.ar      1 YZ9900      0.1519 
      11 C7        -2.0363   -1.8074    3.5152 C.ar      1 YZ9900      0.3521 
      12 C12       -0.3393   -3.6283    2.9930 C.2       1 YZ9900      0.3476 
      13 O4        -1.3623    4.1282    3.6011 O.3       1 YZ9900     -0.2865 
      14 O5        -2.8649   -2.6230    3.5978 O.2       1 YZ9900     -0.2442 
      15 C10        0.3772    2.5990    3.2556 C.ar      1 YZ9900      0.0422 
      16 C9        -0.6453   -2.1790    3.2246 C.ar      1 YZ9900      0.1515 
      17 C8        -0.9919    2.8392    3.5109 C.ar      1 YZ9900      0.1988 
      18 H31        0.1499   -4.8438    0.2215 H         1 YZ9900      0.0000 
      19 H32       -0.8662   -6.2778    0.5030 H         1 YZ9900      0.0000 
      20 H33       -1.2175   -5.1927   -0.8635 H         1 YZ9900      0.0000 
      21 H112      -2.7777   -4.8408    1.0099 H         1 YZ9900      0.0000 
      22 H113      -1.7873   -3.3959    0.6937 H         1 YZ9900      0.0000 
      23 H6         1.8821    1.0393    2.9523 H         1 YZ9900      0.0000 
      24 H5         1.3623   -1.4711    3.0568 H         1 YZ9900      0.0000 
      25 H4        -3.0308    2.0425    3.8698 H         1 YZ9900      0.0000 
      26 HO4       -1.3305    4.5324    2.7310 H         1 YZ9900      0.0000 
      27 H10        1.0646    3.4248    3.1457 H         1 YZ9900      0.0000 
@<TRIPOS>BOND
       1       13       17 1        
       2        7       17 ar       
       3        7       10 ar       
       4        8       10 ar       
       5        8       11 ar       
       6       14       11 2        
       7       17       15 ar       
       8       10        9 ar       
       9       11       16 ar       
      10        2        4 1        
      11        2        1 1        
      12       15        5 ar       
      13        9        5 ar       
      14        9        6 ar       
      15       16        6 ar       
      16       16       12 1        
      17        4       12 1        
      18       12        3 2        
      19       18        1 1        
      20       19        1 1        
      21       20        1 1        
      22       21        2 1        
      23       22        2 1        
      24       23        5 1        
      25       24        6 1        
      26       25        7 1        
      27       26       13 1        
      28       27       15 1        
@<TRIPOS>SUBSTRUCTURE
 1 YZ9900 10 RESIDUE 4 A YZ9900 0 ROOT

