#        1GCZ_R01_S0001_C0000_L00004_S0001_C0003_G0010_E0001.mol2
#        Tue Jun  6 09:55:22 2017
#        Descriptor:     26    13    12    11     4    13
#        Energy - RMSD - RMSD MassCentre:     -62.0776    999.9999    999.9999
#        Receptor:       1  Surface Point:     1  Conformer:     0
#        Ligand:         4  Surface Point:     1  Conformer:     3
#        BUDE Formal Charge: 0
#        ATOM Count: 46
#        Heavy ATOM Count: 28
@<TRIPOS>MOLECULE
ZINC61563277_1GCZ_R01_S0001_C0000_L00004_S0001_C0003_G0010_E0001
 46 49 0 0 0
SMALL
USER_CHARGES
@<TRIPOS>ATOM
       1 C1         1.2409   -1.7536    7.8773 C.3       1 <0>        -0.1051 
       2 C2         0.6792   -1.1795    6.5985 C.2       1 <0>         0.1324 
       3 C3        -0.5805   -1.3152    6.1626 C.2       1 <0>        -0.1714 
       4 C4        -0.6861   -0.5946    4.8476 C.ar      1 <0>        -0.0773 
       5 C5        -1.7047   -0.4011    3.9070 C.ar      1 <0>        -0.0675 
       6 C6        -1.3892    0.4013    2.8038 C.ar      1 <0>        -0.1361 
       7 C7        -0.1302    1.0056    2.6912 C.ar      1 <0>        -0.0920 
       8 C8         0.8722    0.8080    3.6485 C.ar      1 <0>        -0.1265 
       9 C9         0.5990   -0.0550    4.7166 C.ar      1 <0>         0.1084 
      10 N1         1.3803   -0.4734    5.7351 N.pl3     1 <0>        -0.4675 
      11 C10        2.8169   -0.1499    5.8709 C.3       1 <0>         0.1242 
      12 C11        3.6291   -1.0939    5.0171 C.2       1 <0>         0.4463 
      13 O1         4.2382   -0.6754    4.0779 O.2       1 <0>        -0.4704 
      14 O2         3.6668   -2.4101    5.3151 O.3       1 <0>        -0.3437 
      15 C12        4.4495   -3.2652    4.4778 C.3       1 <0>         0.1567 
      16 C13        4.3556   -4.6853    4.9824 C.2       1 <0>         0.2874 
      17 N2         5.2123   -5.5498    5.4934 N.2       1 <0>        -0.5106 
      18 C14        4.5552   -6.7477    5.7988 C.2       1 <0>         0.2609 
      19 N3         3.3222   -6.6337    5.4746 N.2       1 <0>        -0.3200 
      20 O3         3.1331   -5.3519    4.9441 O.3       1 <0>        -0.0928 
      21 C15        5.1846   -7.9697    6.4237 C.3       1 <0>         0.0037 
      22 C16        5.6568   -8.9039    5.3353 C.ar      1 <0>        -0.0973 
      23 C17        4.8084   -9.8993    4.8358 C.ar      1 <0>        -0.0995 
      24 C18        5.2360  -10.7523    3.8115 C.ar      1 <0>        -0.1207 
      25 C19        6.5265  -10.6326    3.2913 C.ar      1 <0>        -0.1122 
      26 C20        7.3844   -9.6468    3.7935 C.ar      1 <0>        -0.1201 
      27 C21        6.9525   -8.7942    4.8166 C.ar      1 <0>        -0.1046 
      28 Br1       -1.9983   -2.2150    7.0080 Br        1 <0>        -0.0155 
      29 H1         1.6026   -0.9449    8.5088 H         1 <0>         0.0903 
      30 H2         2.0629   -2.4261    7.6418 H         1 <0>         0.0953 
      31 H3         0.4610   -2.3024    8.4009 H         1 <0>         0.0712 
      32 H4        -2.6899   -0.8333    4.0030 H         1 <0>         0.1274 
      33 H5        -2.1461    0.5609    2.0503 H         1 <0>         0.1276 
      34 H6         0.0817    1.6478    1.8491 H         1 <0>         0.1296 
      35 H7         1.8070    1.3352    3.5288 H         1 <0>         0.1206 
      36 H8         3.1150   -0.2560    6.9118 H         1 <0>         0.1394 
      37 H9         2.9910    0.8741    5.5470 H         1 <0>         0.1404 
      38 H10        5.4877   -2.9403    4.4982 H         1 <0>         0.1240 
      39 H11        4.0734   -3.2163    3.4581 H         1 <0>         0.1139 
      40 H12        4.4499   -8.4776    7.0451 H         1 <0>         0.1085 
      41 H13        6.0318   -7.6676    7.0360 H         1 <0>         0.1144 
      42 H14        3.8144  -10.0222    5.2396 H         1 <0>         0.1277 
      43 H15        4.5700  -11.5132    3.4322 H         1 <0>         0.1259 
      44 H16        6.8623  -11.2860    2.4996 H         1 <0>         0.1247 
      45 H17        8.3814   -9.5460    3.3906 H         1 <0>         0.1255 
      46 H18        7.6330   -8.0505    5.2043 H         1 <0>         0.1245 
@<TRIPOS>BOND
       1        1        2 1        
       2        1       29 1        
       3        1       30 1        
       4        1       31 1        
       5        2       10 1        
       6        2        3 2        
       7        3        4 1        
       8        3       28 1        
       9        4        9 ar       
      10        4        5 ar       
      11        5        6 ar       
      12        5       32 1        
      13        6        7 ar       
      14        6       33 1        
      15        7        8 ar       
      16        7       34 1        
      17        8        9 ar       
      18        8       35 1        
      19        9       10 1        
      20       10       11 1        
      21       11       12 1        
      22       11       36 1        
      23       11       37 1        
      24       12       13 2        
      25       12       14 1        
      26       14       15 1        
      27       15       16 1        
      28       15       38 1        
      29       15       39 1        
      30       16       20 1        
      31       16       17 2        
      32       17       18 1        
      33       18       19 2        
      34       18       21 1        
      35       19       20 1        
      36       21       22 1        
      37       21       40 1        
      38       21       41 1        
      39       22       27 ar       
      40       22       23 ar       
      41       23       24 ar       
      42       23       42 1        
      43       24       25 ar       
      44       24       43 1        
      45       25       26 ar       
      46       25       44 1        
      47       26       27 ar       
      48       26       45 1        
      49       27       46 1        

