#        scan_R01_S0013_C0000_L00001_S0001_C0000_G0010_E0001.mol2
#        Mon Jun 19 14:12:50 2017
#        Descriptor:      5    26     4     1     1     5
#        Energy - RMSD - RMSD MassCentre:     -36.9620    999.9999    999.9999
#        Receptor:       1  Surface Point:    13  Conformer:     0
#        Ligand:         1  Surface Point:     1  Conformer:     0
#        BUDE Formal Charge: 0
#        ATOM Count: 27
#        Heavy ATOM Count: 17
@<TRIPOS>MOLECULE
pdb1gcz_ligA.pdb_scan_R01_S0013_C0000_L00001_S0001_C0000_G0010_E0001
27 28 1 0 0
SMALL
GASTEIGER
@<TRIPOS>ATOM
       1 C3        -1.0039   -5.2305    0.1472 C.3       1 YZ9900      0.0513 
       2 C11       -1.7422   -4.5487    1.2634 C.3       1 YZ9900      0.2089 
       3 O1         1.2142   -3.6707    2.7450 O.2       1 YZ9900     -0.2447 
       4 O2        -0.8701   -4.4765    2.4614 O.3       1 YZ9900     -0.4453 
       5 C6         0.4323    1.5189    2.6724 C.ar      1 YZ9900      0.0063 
       6 C5         0.3336   -0.9982    2.7939 C.ar      1 YZ9900      0.0160 
       7 C4        -2.1909    1.6505    3.9884 C.ar      1 YZ9900      0.0796 
       8 O3        -2.1798   -0.7545    4.0535 O.2       1 YZ9900     -0.4208 
       9 C2        -0.2617    0.3479    3.0595 C.ar      1 YZ9900      0.0353 
      10 C1        -1.5365    0.4324    3.6991 C.ar      1 YZ9900      0.1519 
      11 C7        -1.7106   -1.9476    3.7670 C.ar      1 YZ9900      0.3521 
      12 C12        0.0343   -3.4923    2.7486 C.2       1 YZ9900      0.3476 
      13 O4        -1.9754    4.0208    3.7940 O.3       1 YZ9900     -0.2865 
      14 O5        -2.3448   -2.8805    4.0605 O.2       1 YZ9900     -0.2442 
      15 C10       -0.1862    2.7748    2.9397 C.ar      1 YZ9900      0.0422 
      16 C9        -0.4169   -2.1038    3.0894 C.ar      1 YZ9900      0.1515 
      17 C8        -1.4486    2.8039    3.5744 C.ar      1 YZ9900      0.1988 
      18 H31       -0.0905   -4.6786   -0.0754 H         1 YZ9900      0.0000 
      19 H32       -0.7498   -6.2470    0.4476 H         1 YZ9900      0.0000 
      20 H33       -1.6355   -5.2611   -0.7406 H         1 YZ9900      0.0000 
      21 H112      -2.6422   -5.1151    1.5029 H         1 YZ9900      0.0000 
      22 H113      -2.0187   -3.5408    0.9540 H         1 YZ9900      0.0000 
      23 H6         1.3974    1.4628    2.1912 H         1 YZ9900      0.0000 
      24 H5         1.3267   -1.0949    2.3808 H         1 YZ9900      0.0000 
      25 H4        -3.1543    1.7067    4.4731 H         1 YZ9900      0.0000 
      26 HO4       -2.2527    4.4054    2.9593 H         1 YZ9900      0.0000 
      27 H10        0.3049    3.6952    2.6599 H         1 YZ9900      0.0000 
@<TRIPOS>BOND
       1       13       17 1        
       2        7       17 ar       
       3        7       10 ar       
       4        8       10 ar       
       5        8       11 ar       
       6       14       11 2        
       7       17       15 ar       
       8       10        9 ar       
       9       11       16 ar       
      10        2        4 1        
      11        2        1 1        
      12       15        5 ar       
      13        9        5 ar       
      14        9        6 ar       
      15       16        6 ar       
      16       16       12 1        
      17        4       12 1        
      18       12        3 2        
      19       18        1 1        
      20       19        1 1        
      21       20        1 1        
      22       21        2 1        
      23       22        2 1        
      24       23        5 1        
      25       24        6 1        
      26       25        7 1        
      27       26       13 1        
      28       27       15 1        
@<TRIPOS>SUBSTRUCTURE
 1 YZ9900 10 RESIDUE 4 A YZ9900 0 ROOT

