#        scan_R01_S0013_C0000_L00001_S0001_C0002_G0010_E0001.mol2
#        Mon Jun 19 14:41:16 2017
#        Descriptor:     31    19    25     1     2     5
#        Energy - RMSD - RMSD MassCentre:     -36.5220    999.9999    999.9999
#        Receptor:       1  Surface Point:    13  Conformer:     0
#        Ligand:         1  Surface Point:     1  Conformer:     2
#        BUDE Formal Charge: 0
#        ATOM Count: 27
#        Heavy ATOM Count: 17
@<TRIPOS>MOLECULE
pdb1gcz_ligA.pdb_scan_R01_S0013_C0000_L00001_S0001_C0002_G0010_E0001
27 28 1 0 0
SMALL
GASTEIGER
@<TRIPOS>ATOM
       1 C3        -2.8119   -7.1251    3.7712 C.3       1 YZ9900      0.0513 
       2 C11       -1.7533   -6.4456    2.9074 C.3       1 YZ9900      0.2089 
       3 O1        -0.1511   -4.7597    1.6816 O.2       1 YZ9900     -0.2447 
       4 O2        -1.7985   -5.0326    3.1230 O.3       1 YZ9900     -0.4453 
       5 C6         0.7716    0.3000    1.4827 C.ar      1 YZ9900      0.0063 
       6 C5        -0.0840   -2.0032    1.9633 C.ar      1 YZ9900      0.0160 
       7 C4        -1.0657    1.4004    3.2645 C.ar      1 YZ9900      0.0796 
       8 O3        -1.9289   -0.7935    3.7654 O.2       1 YZ9900     -0.4208 
       9 C2        -0.1124   -0.5380    2.1706 C.ar      1 YZ9900      0.0353 
      10 C1        -1.0357    0.0149    3.0659 C.ar      1 YZ9900      0.1519 
      11 C7        -1.8981   -2.1719    3.5670 C.ar      1 YZ9900      0.3521 
      12 C12       -0.9281   -4.2596    2.4394 C.2       1 YZ9900      0.3476 
      13 O4        -0.2505    3.5932    2.8065 O.3       1 YZ9900     -0.2865 
      14 O5        -2.6888   -2.8616    4.1895 O.2       1 YZ9900     -0.2442 
      15 C10        0.7374    1.6849    1.6851 C.ar      1 YZ9900      0.0422 
      16 C9        -0.9362   -2.7918    2.6286 C.ar      1 YZ9900      0.1515 
      17 C8        -0.1834    2.2439    2.5791 C.ar      1 YZ9900      0.1988 
      18 H31       -3.7973   -6.7574    3.4923 H         1 YZ9900      0.0000 
      19 H32       -2.7686   -8.2012    3.6171 H         1 YZ9900      0.0000 
      20 H33       -2.6233   -6.9002    4.8188 H         1 YZ9900      0.0000 
      21 H112      -1.9490   -6.6581    1.8584 H         1 YZ9900      0.0000 
      22 H113      -0.7686   -6.8216    3.1767 H         1 YZ9900      0.0000 
      23 H6         1.4866   -0.1195    0.7904 H         1 YZ9900      0.0000 
      24 H5         0.6321   -2.4199    1.2705 H         1 YZ9900      0.0000 
      25 H4        -1.7797    1.8223    3.9564 H         1 YZ9900      0.0000 
      26 HO4       -0.9547    3.8043    3.4393 H         1 YZ9900      0.0000 
      27 H10        1.4307    2.3097    1.1417 H         1 YZ9900      0.0000 
@<TRIPOS>BOND
       1       13       17 1        
       2        7       17 ar       
       3        7       10 ar       
       4        8       10 ar       
       5        8       11 ar       
       6       14       11 2        
       7       17       15 ar       
       8       10        9 ar       
       9       11       16 ar       
      10        2        4 1        
      11        2        1 1        
      12       15        5 ar       
      13        9        5 ar       
      14        9        6 ar       
      15       16        6 ar       
      16       16       12 1        
      17        4       12 1        
      18       12        3 2        
      19       18        1 1        
      20       19        1 1        
      21       20        1 1        
      22       21        2 1        
      23       22        2 1        
      24       23        5 1        
      25       24        6 1        
      26       25        7 1        
      27       26       13 1        
      28       27       15 1        
@<TRIPOS>SUBSTRUCTURE
 1 YZ9900 10 RESIDUE 4 A YZ9900 0 ROOT

