#        scan_R01_S0013_C0000_L00001_S0001_C0003_G0010_E0001.mol2
#        Mon Jun 19 14:12:52 2017
#        Descriptor:      8    19    29     2     2     5
#        Energy - RMSD - RMSD MassCentre:     -36.0340    999.9999    999.9999
#        Receptor:       1  Surface Point:    13  Conformer:     0
#        Ligand:         1  Surface Point:     1  Conformer:     3
#        BUDE Formal Charge: 0
#        ATOM Count: 27
#        Heavy ATOM Count: 17
@<TRIPOS>MOLECULE
pdb1gcz_ligA.pdb_scan_R01_S0013_C0000_L00001_S0001_C0003_G0010_E0001
27 28 1 0 0
SMALL
GASTEIGER
@<TRIPOS>ATOM
       1 C3        -0.6554   -6.7322    4.8080 C.3       1 YZ9900      0.0513 
       2 C11        0.3530   -6.4426    3.6998 C.3       1 YZ9900      0.2089 
       3 O1        -1.5793   -4.7542    3.1272 O.2       1 YZ9900     -0.2447 
       4 O2         0.5576   -5.0308    3.5998 O.3       1 YZ9900     -0.4453 
       5 C6        -2.2716    0.3037    2.4722 C.ar      1 YZ9900      0.0063 
       6 C5        -1.3840   -1.9997    2.8896 C.ar      1 YZ9900      0.0160 
       7 C4         0.2561    1.3990    2.8876 C.ar      1 YZ9900      0.0796 
       8 O3         1.1649   -0.7952    3.2984 O.2       1 YZ9900     -0.4208 
       9 C2        -1.1959   -0.5357    2.7808 C.ar      1 YZ9900      0.0353 
      10 C1         0.0743    0.0146    2.9896 C.ar      1 YZ9900      0.1519 
      11 C7         0.9827   -2.1725    3.3996 C.ar      1 YZ9900      0.3521 
      12 C12       -0.5068   -4.2563    3.3001 C.2       1 YZ9900      0.3476 
      13 O4        -0.5896    3.5921    2.4900 O.3       1 YZ9900     -0.2865 
      14 O5         1.9509   -2.8636    3.6709 O.2       1 YZ9900     -0.2442 
      15 C10       -2.0841    1.6874    2.3714 C.ar      1 YZ9900      0.0422 
      16 C9        -0.3453   -2.7897    3.1856 C.ar      1 YZ9900      0.1515 
      17 C8        -0.8165    2.2439    2.5790 C.ar      1 YZ9900      0.1988 
      18 H31       -1.6034   -6.2549    4.5685 H         1 YZ9900      0.0000 
      19 H32       -0.8010   -7.8071    4.8930 H         1 YZ9900      0.0000 
      20 H33       -0.2794   -6.3409    5.7509 H         1 YZ9900      0.0000 
      21 H112      -0.0282   -6.8210    2.7537 H         1 YZ9900      0.0000 
      22 H113       1.2977   -6.9297    3.9319 H         1 YZ9900      0.0000 
      23 H6        -3.2543   -0.1138    2.3098 H         1 YZ9900      0.0000 
      24 H5        -2.3678   -2.4145    2.7267 H         1 YZ9900      0.0000 
      25 H4         1.2379    1.8189    3.0494 H         1 YZ9900      0.0000 
      26 HO4        0.3383    3.8014    2.6802 H         1 YZ9900      0.0000 
      27 H10       -2.9310    2.3134    2.1320 H         1 YZ9900      0.0000 
@<TRIPOS>BOND
       1       13       17 1        
       2        7       17 ar       
       3        7       10 ar       
       4        8       10 ar       
       5        8       11 ar       
       6       14       11 2        
       7       17       15 ar       
       8       10        9 ar       
       9       11       16 ar       
      10        2        4 1        
      11        2        1 1        
      12       15        5 ar       
      13        9        5 ar       
      14        9        6 ar       
      15       16        6 ar       
      16       16       12 1        
      17        4       12 1        
      18       12        3 2        
      19       18        1 1        
      20       19        1 1        
      21       20        1 1        
      22       21        2 1        
      23       22        2 1        
      24       23        5 1        
      25       24        6 1        
      26       25        7 1        
      27       26       13 1        
      28       27       15 1        
@<TRIPOS>SUBSTRUCTURE
 1 YZ9900 10 RESIDUE 4 A YZ9900 0 ROOT

