#        scan_R01_S0014_C0000_L00001_S0001_C0000_G0010_E0001.mol2
#        Mon Jun 19 14:41:17 2017
#        Descriptor:      4    26    11     1     1     4
#        Energy - RMSD - RMSD MassCentre:     -23.9878    999.9999    999.9999
#        Receptor:       1  Surface Point:    14  Conformer:     0
#        Ligand:         1  Surface Point:     1  Conformer:     0
#        BUDE Formal Charge: 0
#        ATOM Count: 27
#        Heavy ATOM Count: 17
@<TRIPOS>MOLECULE
pdb1gcz_ligA.pdb_scan_R01_S0014_C0000_L00001_S0001_C0000_G0010_E0001
27 28 1 0 0
SMALL
GASTEIGER
@<TRIPOS>ATOM
       1 C3         3.0838   -1.7865   -0.9562 C.3       1 YZ9900      0.0513 
       2 C11        2.3137   -2.3786    0.1892 C.3       1 YZ9900      0.2089 
       3 O1         2.0107    0.7049    1.6404 O.2       1 YZ9900     -0.2447 
       4 O2         2.4290   -1.4923    1.3733 O.3       1 YZ9900     -0.4453 
       5 C6        -3.2355    0.8499    1.7101 C.ar      1 YZ9900      0.0063 
       6 C5        -0.7728    0.3102    1.7708 C.ar      1 YZ9900      0.0160 
       7 C4        -3.7906   -1.6919    3.0743 C.ar      1 YZ9900      0.0796 
       8 O3        -1.4203   -2.1045    3.0797 O.2       1 YZ9900     -0.4208 
       9 C2        -2.1947   -0.0348    2.0801 C.ar      1 YZ9900      0.0353 
      10 C1        -2.4847   -1.2665    2.7436 C.ar      1 YZ9900      0.1519 
      11 C7        -0.1716   -1.8568    2.7556 C.ar      1 YZ9900      0.3521 
      12 C12        1.6276   -0.4249    1.6690 C.2       1 YZ9900      0.3476 
      13 O4        -6.0904   -1.0642    2.9350 O.3       1 YZ9900     -0.2865 
      14 O5         0.6429   -2.6418    3.0368 O.2       1 YZ9900     -0.2442 
      15 C10       -4.5729    0.4661    2.0191 C.ar      1 YZ9900      0.0422 
      16 C9         0.1912   -0.6197    2.0519 C.ar      1 YZ9900      0.1515 
      17 C8        -4.8062   -0.7632    2.6762 C.ar      1 YZ9900      0.1988 
      18 H31        2.6955   -0.7930   -1.1809 H         1 YZ9900      0.0000 
      19 H32        4.1371   -1.7119   -0.6855 H         1 YZ9900      0.0000 
      20 H33        2.9784   -2.4249   -1.8333 H         1 YZ9900      0.0000 
      21 H112       2.7192   -3.3613    0.4302 H         1 YZ9900      0.0000 
      22 H113       1.2647   -2.4769   -0.0903 H         1 YZ9900      0.0000 
      23 H6        -3.0237    1.7837    1.2109 H         1 YZ9900      0.0000 
      24 H5        -0.5141    1.2653    1.3383 H         1 YZ9900      0.0000 
      25 H4        -4.0022   -2.6241    3.5770 H         1 YZ9900      0.0000 
      26 HO4       -6.5405   -1.2799    2.1150 H         1 YZ9900      0.0000 
      27 H10       -5.3997    1.1082    1.7536 H         1 YZ9900      0.0000 
@<TRIPOS>BOND
       1       13       17 1        
       2        7       17 ar       
       3        7       10 ar       
       4        8       10 ar       
       5        8       11 ar       
       6       14       11 2        
       7       17       15 ar       
       8       10        9 ar       
       9       11       16 ar       
      10        2        4 1        
      11        2        1 1        
      12       15        5 ar       
      13        9        5 ar       
      14        9        6 ar       
      15       16        6 ar       
      16       16       12 1        
      17        4       12 1        
      18       12        3 2        
      19       18        1 1        
      20       19        1 1        
      21       20        1 1        
      22       21        2 1        
      23       22        2 1        
      24       23        5 1        
      25       24        6 1        
      26       25        7 1        
      27       26       13 1        
      28       27       15 1        
@<TRIPOS>SUBSTRUCTURE
 1 YZ9900 10 RESIDUE 4 A YZ9900 0 ROOT

