#        scan_R01_S0014_C0000_L00001_S0001_C0000_G0010_E0001.mol2
#        Mon Jun 19 14:12:52 2017
#        Descriptor:     32    32    18     3     1     3
#        Energy - RMSD - RMSD MassCentre:     -25.5002    999.9999    999.9999
#        Receptor:       1  Surface Point:    14  Conformer:     0
#        Ligand:         1  Surface Point:     1  Conformer:     0
#        BUDE Formal Charge: 0
#        ATOM Count: 27
#        Heavy ATOM Count: 17
@<TRIPOS>MOLECULE
pdb1gcz_ligA.pdb_scan_R01_S0014_C0000_L00001_S0001_C0000_G0010_E0001
27 28 1 0 0
SMALL
GASTEIGER
@<TRIPOS>ATOM
       1 C3        -3.5958    1.1855    1.3709 C.3       1 YZ9900      0.0513 
       2 C11       -2.1299    1.5047    1.2997 C.3       1 YZ9900      0.2089 
       3 O1        -1.4250   -1.0241    3.4938 O.2       1 YZ9900     -0.2447 
       4 O2        -1.4559    1.0091    2.5248 O.3       1 YZ9900     -0.4453 
       5 C6         1.7627   -3.7319    0.3230 C.ar      1 YZ9900      0.0063 
       6 C5         0.4305   -2.0430    1.6392 C.ar      1 YZ9900      0.0160 
       7 C4         3.6481   -1.6078   -0.4278 C.ar      1 YZ9900      0.0796 
       8 O3         2.3039   -0.0824    0.8587 O.2       1 YZ9900     -0.4208 
       9 C2         1.5940   -2.3999    0.7701 C.ar      1 YZ9900      0.0353 
      10 C1         2.5222   -1.3806    0.3947 C.ar      1 YZ9900      0.1519 
      11 C7         1.2522    0.2691    1.5630 C.ar      1 YZ9900      0.3521 
      12 C12       -0.9519   -0.2462    2.7223 C.2       1 YZ9900      0.3476 
      13 O4         4.8042   -3.3046   -1.6472 O.3       1 YZ9900     -0.2865 
      14 O5         1.1319    1.3891    1.8628 O.2       1 YZ9900     -0.2442 
      15 C10        2.8827   -4.0139   -0.5122 C.ar      1 YZ9900      0.0422 
      16 C9         0.2480   -0.7256    1.9621 C.ar      1 YZ9900      0.1515 
      17 C8         3.7713   -2.9697   -0.8549 C.ar      1 YZ9900      0.1988 
      18 H31       -3.7291    0.1085    1.4736 H         1 YZ9900      0.0000 
      19 H32       -4.0357    1.6895    2.2315 H         1 YZ9900      0.0000 
      20 H33       -4.0866    1.5273    0.4597 H         1 YZ9900      0.0000 
      21 H112      -1.9964    2.5839    1.2229 H         1 YZ9900      0.0000 
      22 H113      -1.6947    1.0216    0.4248 H         1 YZ9900      0.0000 
      23 H6         1.0669   -4.5081    0.6050 H         1 YZ9900      0.0000 
      24 H5        -0.2462   -2.8027    2.0015 H         1 YZ9900      0.0000 
      25 H4         4.3462   -0.8324   -0.7066 H         1 YZ9900      0.0000 
      26 HO4        4.4830   -3.4838   -2.5339 H         1 YZ9900      0.0000 
      27 H10        3.0506   -5.0156   -0.8796 H         1 YZ9900      0.0000 
@<TRIPOS>BOND
       1       13       17 1        
       2        7       17 ar       
       3        7       10 ar       
       4        8       10 ar       
       5        8       11 ar       
       6       14       11 2        
       7       17       15 ar       
       8       10        9 ar       
       9       11       16 ar       
      10        2        4 1        
      11        2        1 1        
      12       15        5 ar       
      13        9        5 ar       
      14        9        6 ar       
      15       16        6 ar       
      16       16       12 1        
      17        4       12 1        
      18       12        3 2        
      19       18        1 1        
      20       19        1 1        
      21       20        1 1        
      22       21        2 1        
      23       22        2 1        
      24       23        5 1        
      25       24        6 1        
      26       25        7 1        
      27       26       13 1        
      28       27       15 1        
@<TRIPOS>SUBSTRUCTURE
 1 YZ9900 10 RESIDUE 4 A YZ9900 0 ROOT

