#        scan_R01_S0014_C0000_L00001_S0001_C0003_G0010_E0001.mol2
#        Mon Jun 19 14:41:18 2017
#        Descriptor:     13     2    26     1     2     4
#        Energy - RMSD - RMSD MassCentre:     -23.4100    999.9999    999.9999
#        Receptor:       1  Surface Point:    14  Conformer:     0
#        Ligand:         1  Surface Point:     1  Conformer:     3
#        BUDE Formal Charge: 0
#        ATOM Count: 27
#        Heavy ATOM Count: 17
@<TRIPOS>MOLECULE
pdb1gcz_ligA.pdb_scan_R01_S0014_C0000_L00001_S0001_C0003_G0010_E0001
27 28 1 0 0
SMALL
GASTEIGER
@<TRIPOS>ATOM
       1 C3        -1.4321    5.1725   -2.6989 C.3       1 YZ9900      0.0513 
       2 C11       -1.5323    5.5997   -1.2374 C.3       1 YZ9900      0.2089 
       3 O1        -2.8743    3.3389   -1.2329 O.2       1 YZ9900     -0.2447 
       4 O2        -1.1932    4.4954   -0.3946 O.3       1 YZ9900     -0.4453 
       5 C6        -2.8037   -1.2330    1.1299 C.ar      1 YZ9900      0.0063 
       6 C5        -2.3765    1.0962    0.3177 C.ar      1 YZ9900      0.0160 
       7 C4        -0.6391   -1.0668    2.8758 C.ar      1 YZ9900      0.0796 
       8 O3        -0.1813    1.1794    2.1312 O.2       1 YZ9900     -0.4208 
       9 C2        -2.0443   -0.0594    1.1807 C.ar      1 YZ9900      0.0353 
      10 C1        -0.9565    0.0242    2.0579 C.ar      1 YZ9900      0.1519 
      11 C7        -0.4981    2.2643    1.3170 C.ar      1 YZ9900      0.3521 
      12 C12       -1.9517    3.3815   -0.4745 C.2       1 YZ9900      0.3476 
      13 O4        -1.0464   -3.2848    3.6488 O.3       1 YZ9900     -0.2865 
      14 O5         0.1935    3.2662    1.3968 O.2       1 YZ9900     -0.2442 
      15 C10       -2.4819   -2.3211    1.9500 C.ar      1 YZ9900      0.0422 
      16 C9        -1.6404    2.2122    0.3776 C.ar      1 YZ9900      0.1515 
      17 C8        -1.3955   -2.2438    2.8294 C.ar      1 YZ9900      0.1988 
      18 H31       -2.1295    4.3587   -2.8868 H         1 YZ9900      0.0000 
      19 H32       -1.6771    6.0164   -3.3404 H         1 YZ9900      0.0000 
      20 H33       -0.4184    4.8382   -2.9097 H         1 YZ9900      0.0000 
      21 H112      -2.5491    5.9209   -1.0217 H         1 YZ9900      0.0000 
      22 H113      -0.8444    6.4218   -1.0513 H         1 YZ9900      0.0000 
      23 H6        -3.6443   -1.3048    0.4555 H         1 YZ9900      0.0000 
      24 H5        -3.2176    1.0218   -0.3557 H         1 YZ9900      0.0000 
      25 H4         0.2010   -0.9976    3.5511 H         1 YZ9900      0.0000 
      26 HO4       -0.2623   -3.0643    4.1756 H         1 YZ9900      0.0000 
      27 H10       -3.0842   -3.2156    1.8915 H         1 YZ9900      0.0000 
@<TRIPOS>BOND
       1       13       17 1        
       2        7       17 ar       
       3        7       10 ar       
       4        8       10 ar       
       5        8       11 ar       
       6       14       11 2        
       7       17       15 ar       
       8       10        9 ar       
       9       11       16 ar       
      10        2        4 1        
      11        2        1 1        
      12       15        5 ar       
      13        9        5 ar       
      14        9        6 ar       
      15       16        6 ar       
      16       16       12 1        
      17        4       12 1        
      18       12        3 2        
      19       18        1 1        
      20       19        1 1        
      21       20        1 1        
      22       21        2 1        
      23       22        2 1        
      24       23        5 1        
      25       24        6 1        
      26       25        7 1        
      27       26       13 1        
      28       27       15 1        
@<TRIPOS>SUBSTRUCTURE
 1 YZ9900 10 RESIDUE 4 A YZ9900 0 ROOT

