#        1GCZ_R01_S0001_C0000_L00004_S0001_C0003_G0010_E0001.mol2
#        Tue Jun  6 14:05:16 2017
#        Descriptor:      8    22     8     8     6    15
#        Energy - RMSD - RMSD MassCentre:     -61.8452    999.9999    999.9999
#        Receptor:       1  Surface Point:     1  Conformer:     0
#        Ligand:         4  Surface Point:     1  Conformer:     3
#        BUDE Formal Charge: 0
#        ATOM Count: 46
#        Heavy ATOM Count: 28
@<TRIPOS>MOLECULE
ZINC61563277_1GCZ_R01_S0001_C0000_L00004_S0001_C0003_G0010_E0001
 46 49 0 0 0
SMALL
USER_CHARGES
@<TRIPOS>ATOM
       1 C1         0.7905    0.1783    3.6759 C.3       1 <0>        -0.1051 
       2 C2         1.1584    1.1168    4.8001 C.2       1 <0>         0.1324 
       3 C3         2.4004    1.4871    5.1404 C.2       1 <0>        -0.1714 
       4 C4         2.2911    2.4151    6.3179 C.ar      1 <0>        -0.0773 
       5 C5         3.2086    3.0961    7.1267 C.ar      1 <0>        -0.0675 
       6 C6         2.6695    3.9228    8.1198 C.ar      1 <0>        -0.1361 
       7 C7         1.2835    4.0808    8.2492 C.ar      1 <0>        -0.0920 
       8 C8         0.3820    3.3987    7.4231 C.ar      1 <0>        -0.1265 
       9 C9         0.9033    2.5076    6.4774 C.ar      1 <0>         0.1084 
      10 N1         0.2835    1.6844    5.6051 N.pl3     1 <0>        -0.4675 
      11 C10       -1.1800    1.4803    5.5474 C.3       1 <0>         0.1242 
      12 C11       -1.5915    0.4798    6.6008 C.2       1 <0>         0.4463 
      13 O1        -2.2787    0.8245    7.5156 O.2       1 <0>        -0.4704 
      14 O2        -1.1826   -0.8035    6.5085 O.3       1 <0>        -0.3437 
      15 C12       -1.5974   -1.7147    7.5296 C.3       1 <0>         0.1567 
      16 C13       -1.0356   -3.0856    7.2381 C.2       1 <0>         0.2874 
      17 N2        -1.5573   -4.2607    6.9393 N.2       1 <0>        -0.5106 
      18 C14       -0.5374   -5.2032    6.7616 C.2       1 <0>         0.2609 
      19 N3         0.5902   -4.6297    6.9567 N.2       1 <0>        -0.3200 
      20 O3         0.3422   -3.2878    7.2699 O.3       1 <0>        -0.0928 
      21 C15       -0.7261   -6.6532    6.3846 C.3       1 <0>         0.0037 
      22 C16       -0.8147   -7.4908    7.6379 C.ar      1 <0>        -0.0973 
      23 C17        0.3391   -8.0440    8.2058 C.ar      1 <0>        -0.0995 
      24 C18        0.2625   -8.8024    9.3800 C.ar      1 <0>        -0.1207 
      25 C19       -0.9740   -9.0342    9.9864 C.ar      1 <0>        -0.1122 
      26 C20       -2.1336   -8.4935    9.4180 C.ar      1 <0>        -0.1201 
      27 C21       -2.0527   -7.7338    8.2447 C.ar      1 <0>        -0.1046 
      28 Br1        4.0151    0.9830    4.3201 Br        1 <0>        -0.0155 
      29 H1         0.1536    0.6987    2.9637 H         1 <0>         0.0903 
      30 H2         0.2577   -0.6797    4.0803 H         1 <0>         0.0953 
      31 H3         1.6955   -0.1589    3.1750 H         1 <0>         0.0712 
      32 H4         4.2790    3.0087    7.0117 H         1 <0>         0.1274 
      33 H5         3.3476    4.4527    8.7722 H         1 <0>         0.1276 
      34 H6         0.8889    4.7491    9.0003 H         1 <0>         0.1296 
      35 H7        -0.6731    3.5950    7.5430 H         1 <0>         0.1206 
      36 H8        -1.4547    1.1043    4.5642 H         1 <0>         0.1394 
      37 H9        -1.6862    2.4264    5.7275 H         1 <0>         0.1404 
      38 H10       -2.6841   -1.7644    7.5509 H         1 <0>         0.1240 
      39 H11       -1.2306   -1.3692    8.4938 H         1 <0>         0.1139 
      40 H12        0.1194   -6.9843    5.7852 H         1 <0>         0.1085 
      41 H13       -1.6436   -6.7614    5.8098 H         1 <0>         0.1144 
      42 H14        1.3020   -7.8944    7.7403 H         1 <0>         0.1277 
      43 H15        1.1609   -9.2199    9.8101 H         1 <0>         0.1259 
      44 H16       -1.0403   -9.6167   10.8934 H         1 <0>         0.1247 
      45 H17       -3.0917   -8.6648    9.8862 H         1 <0>         0.1255 
      46 H18       -2.9590   -7.3386    7.8102 H         1 <0>         0.1245 
@<TRIPOS>BOND
       1        1        2 1        
       2        1       29 1        
       3        1       30 1        
       4        1       31 1        
       5        2       10 1        
       6        2        3 2        
       7        3        4 1        
       8        3       28 1        
       9        4        9 ar       
      10        4        5 ar       
      11        5        6 ar       
      12        5       32 1        
      13        6        7 ar       
      14        6       33 1        
      15        7        8 ar       
      16        7       34 1        
      17        8        9 ar       
      18        8       35 1        
      19        9       10 1        
      20       10       11 1        
      21       11       12 1        
      22       11       36 1        
      23       11       37 1        
      24       12       13 2        
      25       12       14 1        
      26       14       15 1        
      27       15       16 1        
      28       15       38 1        
      29       15       39 1        
      30       16       20 1        
      31       16       17 2        
      32       17       18 1        
      33       18       19 2        
      34       18       21 1        
      35       19       20 1        
      36       21       22 1        
      37       21       40 1        
      38       21       41 1        
      39       22       27 ar       
      40       22       23 ar       
      41       23       24 ar       
      42       23       42 1        
      43       24       25 ar       
      44       24       43 1        
      45       25       26 ar       
      46       25       44 1        
      47       26       27 ar       
      48       26       45 1        
      49       27       46 1        

