#        scan_R01_S0014_C0000_L00001_S0001_C0003_G0010_E0001.mol2
#        Mon Jun 19 14:12:53 2017
#        Descriptor:     25     5    18     3     1     4
#        Energy - RMSD - RMSD MassCentre:     -25.3960    999.9999    999.9999
#        Receptor:       1  Surface Point:    14  Conformer:     0
#        Ligand:         1  Surface Point:     1  Conformer:     3
#        BUDE Formal Charge: 0
#        ATOM Count: 27
#        Heavy ATOM Count: 17
@<TRIPOS>MOLECULE
pdb1gcz_ligA.pdb_scan_R01_S0014_C0000_L00001_S0001_C0003_G0010_E0001
27 28 1 0 0
SMALL
GASTEIGER
@<TRIPOS>ATOM
       1 C3         5.2202   -3.9993   -2.7133 C.3       1 YZ9900      0.0513 
       2 C11        4.4489   -2.7769   -3.2028 C.3       1 YZ9900      0.2089 
       3 O1         2.6666   -3.9662   -1.6793 O.2       1 YZ9900     -0.2447 
       4 O2         3.8224   -2.1328   -2.0903 O.3       1 YZ9900     -0.4453 
       5 C6        -0.2545   -2.9416    2.4327 C.ar      1 YZ9900      0.0063 
       6 C5         1.3474   -2.8931    0.5093 C.ar      1 YZ9900      0.0160 
       7 C4         0.3836   -0.3095    3.0857 C.ar      1 YZ9900      0.0796 
       8 O3         1.9396   -0.2064    1.2479 O.2       1 YZ9900     -0.4208 
       9 C2         0.6862   -2.2468    1.6650 C.ar      1 YZ9900      0.0353 
      10 C1         1.0069   -0.9242    1.9931 C.ar      1 YZ9900      0.1519 
      11 C7         2.5591   -0.8190    0.1610 C.ar      1 YZ9900      0.3521 
      12 C12        2.9203   -2.8386   -1.3757 C.2       1 YZ9900      0.3476 
      13 O4        -1.1419   -0.3564    4.9170 O.3       1 YZ9900     -0.2865 
      14 O5         3.3727   -0.1726   -0.4782 O.2       1 YZ9900     -0.2442 
      15 C10       -0.8748   -2.3221    3.5242 C.ar      1 YZ9900      0.0422 
      16 C9         2.2453   -2.2154   -0.2155 C.ar      1 YZ9900      0.1515 
      17 C8        -0.5585   -0.9998    3.8575 C.ar      1 YZ9900      0.1988 
      18 H31        4.5308   -4.6982   -2.2440 H         1 YZ9900      0.0000 
      19 H32        5.7078   -4.4816   -3.5579 H         1 YZ9900      0.0000 
      20 H33        5.9707   -3.6880   -1.9899 H         1 YZ9900      0.0000 
      21 H112       3.6886   -3.0885   -3.9158 H         1 YZ9900      0.0000 
      22 H113       5.1352   -2.0828   -3.6834 H         1 YZ9900      0.0000 
      23 H6        -0.5068   -3.9622    2.1855 H         1 YZ9900      0.0000 
      24 H5         1.0931   -3.9137    0.2644 H         1 YZ9900      0.0000 
      25 H4         0.6342    0.7110    3.3349 H         1 YZ9900      0.0000 
      26 HO4       -0.7933    0.5439    5.0113 H         1 YZ9900      0.0000 
      27 H10       -1.5975   -2.8806    4.1006 H         1 YZ9900      0.0000 
@<TRIPOS>BOND
       1       13       17 1        
       2        7       17 ar       
       3        7       10 ar       
       4        8       10 ar       
       5        8       11 ar       
       6       14       11 2        
       7       17       15 ar       
       8       10        9 ar       
       9       11       16 ar       
      10        2        4 1        
      11        2        1 1        
      12       15        5 ar       
      13        9        5 ar       
      14        9        6 ar       
      15       16        6 ar       
      16       16       12 1        
      17        4       12 1        
      18       12        3 2        
      19       18        1 1        
      20       19        1 1        
      21       20        1 1        
      22       21        2 1        
      23       22        2 1        
      24       23        5 1        
      25       24        6 1        
      26       25        7 1        
      27       26       13 1        
      28       27       15 1        
@<TRIPOS>SUBSTRUCTURE
 1 YZ9900 10 RESIDUE 4 A YZ9900 0 ROOT

