#        scan_R01_S0015_C0000_L00001_S0001_C0000_G0010_E0001.mol2
#        Mon Jun 19 14:12:54 2017
#        Descriptor:      2    36    29     3     1     5
#        Energy - RMSD - RMSD MassCentre:     -52.9545    999.9999    999.9999
#        Receptor:       1  Surface Point:    15  Conformer:     0
#        Ligand:         1  Surface Point:     1  Conformer:     0
#        BUDE Formal Charge: 0
#        ATOM Count: 27
#        Heavy ATOM Count: 17
@<TRIPOS>MOLECULE
pdb1gcz_ligA.pdb_scan_R01_S0015_C0000_L00001_S0001_C0000_G0010_E0001
27 28 1 0 0
SMALL
GASTEIGER
@<TRIPOS>ATOM
       1 C3        -1.5395   -5.4172    2.7264 C.3       1 YZ9900      0.0513 
       2 C11       -1.2467   -4.1643    1.9515 C.3       1 YZ9900      0.2089 
       3 O1        -1.7248   -2.2628    4.7554 O.2       1 YZ9900     -0.2447 
       4 O2        -1.8710   -3.0040    2.6334 O.3       1 YZ9900     -0.4453 
       5 C6         3.0536   -0.0939    4.8615 C.ar      1 YZ9900      0.0063 
       6 C5         0.8023   -1.0990    4.3312 C.ar      1 YZ9900      0.0160 
       7 C4         3.1810    0.9759    2.1284 C.ar      1 YZ9900      0.0796 
       8 O3         1.0285   -0.0234    1.7321 O.2       1 YZ9900     -0.4208 
       9 C2         2.0067   -0.3066    3.9333 C.ar      1 YZ9900      0.0353 
      10 C1         2.0866    0.2224    2.6085 C.ar      1 YZ9900      0.1519 
      11 C7        -0.0052   -0.7751    2.0355 C.ar      1 YZ9900      0.3521 
      12 C12       -1.3161   -2.2561    3.6342 C.2       1 YZ9900      0.3476 
      13 O4         5.3083    1.8585    2.7592 O.3       1 YZ9900     -0.2865 
      14 O5        -0.8156   -0.9632    1.2191 O.2       1 YZ9900     -0.2442 
      15 C10        4.1828    0.6588    4.4259 C.ar      1 YZ9900      0.0422 
      16 C9        -0.1365   -1.3685    3.3726 C.ar      1 YZ9900      0.1515 
      17 C8         4.2132    1.1598    3.1047 C.ar      1 YZ9900      0.1988 
      18 H31       -1.1549   -5.3156    3.7413 H         1 YZ9900      0.0000 
      19 H32       -2.6169   -5.5792    2.7610 H         1 YZ9900      0.0000 
      20 H33       -1.0599   -6.2660    2.2392 H         1 YZ9900      0.0000 
      21 H112      -1.6542   -4.2563    0.9447 H         1 YZ9900      0.0000 
      22 H113      -0.1684   -4.0155    1.8950 H         1 YZ9900      0.0000 
      23 H6         2.9988   -0.4882    5.8653 H         1 YZ9900      0.0000 
      24 H5         0.6771   -1.4484    5.3453 H         1 YZ9900      0.0000 
      25 H4         3.2340    1.3735    1.1257 H         1 YZ9900      0.0000 
      26 HO4        6.0564    1.2624    2.6780 H         1 YZ9900      0.0000 
      27 H10        5.0071    0.8444    5.0987 H         1 YZ9900      0.0000 
@<TRIPOS>BOND
       1       13       17 1        
       2        7       17 ar       
       3        7       10 ar       
       4        8       10 ar       
       5        8       11 ar       
       6       14       11 2        
       7       17       15 ar       
       8       10        9 ar       
       9       11       16 ar       
      10        2        4 1        
      11        2        1 1        
      12       15        5 ar       
      13        9        5 ar       
      14        9        6 ar       
      15       16        6 ar       
      16       16       12 1        
      17        4       12 1        
      18       12        3 2        
      19       18        1 1        
      20       19        1 1        
      21       20        1 1        
      22       21        2 1        
      23       22        2 1        
      24       23        5 1        
      25       24        6 1        
      26       25        7 1        
      27       26       13 1        
      28       27       15 1        
@<TRIPOS>SUBSTRUCTURE
 1 YZ9900 10 RESIDUE 4 A YZ9900 0 ROOT

