#        scan_R01_S0015_C0000_L00001_S0001_C0002_G0010_E0001.mol2
#        Mon Jun 19 14:41:19 2017
#        Descriptor:      6    19     6     2     2     5
#        Energy - RMSD - RMSD MassCentre:     -55.1573    999.9999    999.9999
#        Receptor:       1  Surface Point:    15  Conformer:     0
#        Ligand:         1  Surface Point:     1  Conformer:     2
#        BUDE Formal Charge: 0
#        ATOM Count: 27
#        Heavy ATOM Count: 17
@<TRIPOS>MOLECULE
pdb1gcz_ligA.pdb_scan_R01_S0015_C0000_L00001_S0001_C0002_G0010_E0001
27 28 1 0 0
SMALL
GASTEIGER
@<TRIPOS>ATOM
       1 C3         4.2911    5.9702    3.7668 C.3       1 YZ9900      0.0513 
       2 C11        4.5508    4.6264    3.0921 C.3       1 YZ9900      0.2089 
       3 O1         4.4192    2.1901    2.1127 O.2       1 YZ9900     -0.2447 
       4 O2         3.3891    3.8012    3.2124 O.3       1 YZ9900     -0.4453 
       5 C6         1.0807   -1.7153    1.8081 C.ar      1 YZ9900      0.0063 
       6 C5         2.2704    0.4442    2.2421 C.ar      1 YZ9900      0.0160 
       7 C4        -1.1893   -0.7783    3.1237 C.ar      1 YZ9900      0.0796 
       8 O3        -0.0924    1.3210    3.5698 O.2       1 YZ9900     -0.4208 
       9 C2         1.0796   -0.4275    2.3543 C.ar      1 YZ9900      0.0353 
      10 C1        -0.0609    0.0434    3.0155 C.ar      1 YZ9900      0.1519 
      11 C7         1.0308    2.1377    3.4615 C.ar      1 YZ9900      0.3521 
      12 C12        3.4316    2.5651    2.6713 C.2       1 YZ9900      0.3476 
      13 O4        -2.3216   -2.8349    2.7102 O.3       1 YZ9900     -0.2865 
      14 O5         0.9823    3.2529    3.9538 O.2       1 YZ9900     -0.2442 
      15 C10       -0.0504   -2.5329    1.9192 C.ar      1 YZ9900      0.0422 
      16 C9         2.2542    1.6738    2.7699 C.ar      1 YZ9900      0.1515 
      17 C8        -1.1941   -2.0679    2.5791 C.ar      1 YZ9900      0.1988 
      18 H31        4.0800    5.8106    4.8222 H         1 YZ9900      0.0000 
      19 H32        5.1702    6.6028    3.6637 H         1 YZ9900      0.0000 
      20 H33        3.4383    6.4535    3.2947 H         1 YZ9900      0.0000 
      21 H112       5.3947    4.1356    3.5725 H         1 YZ9900      0.0000 
      22 H113       4.7743    4.7855    2.0393 H         1 YZ9900      0.0000 
      23 H6         1.9570   -2.0854    1.2967 H         1 YZ9900      0.0000 
      24 H5         3.1454    0.0717    1.7301 H         1 YZ9900      0.0000 
      25 H4        -2.0669   -0.4106    3.6346 H         1 YZ9900      0.0000 
      26 HO4       -3.0070   -2.3626    3.2083 H         1 YZ9900      0.0000 
      27 H10       -0.0238   -3.5230    1.4888 H         1 YZ9900      0.0000 
@<TRIPOS>BOND
       1       13       17 1        
       2        7       17 ar       
       3        7       10 ar       
       4        8       10 ar       
       5        8       11 ar       
       6       14       11 2        
       7       17       15 ar       
       8       10        9 ar       
       9       11       16 ar       
      10        2        4 1        
      11        2        1 1        
      12       15        5 ar       
      13        9        5 ar       
      14        9        6 ar       
      15       16        6 ar       
      16       16       12 1        
      17        4       12 1        
      18       12        3 2        
      19       18        1 1        
      20       19        1 1        
      21       20        1 1        
      22       21        2 1        
      23       22        2 1        
      24       23        5 1        
      25       24        6 1        
      26       25        7 1        
      27       26       13 1        
      28       27       15 1        
@<TRIPOS>SUBSTRUCTURE
 1 YZ9900 10 RESIDUE 4 A YZ9900 0 ROOT

