#        scan_R01_S0015_C0000_L00001_S0001_C0002_G0010_E0001.mol2
#        Mon Jun 19 14:12:55 2017
#        Descriptor:     17    17    22     3     1     4
#        Energy - RMSD - RMSD MassCentre:     -51.4858    999.9999    999.9999
#        Receptor:       1  Surface Point:    15  Conformer:     0
#        Ligand:         1  Surface Point:     1  Conformer:     2
#        BUDE Formal Charge: 0
#        ATOM Count: 27
#        Heavy ATOM Count: 17
@<TRIPOS>MOLECULE
pdb1gcz_ligA.pdb_scan_R01_S0015_C0000_L00001_S0001_C0002_G0010_E0001
27 28 1 0 0
SMALL
GASTEIGER
@<TRIPOS>ATOM
       1 C3        -4.8011   -5.5620    1.5759 C.3       1 YZ9900      0.0513 
       2 C11       -4.1744   -4.8418    2.7663 C.3       1 YZ9900      0.2089 
       3 O1        -2.7061   -3.3830    4.3874 O.2       1 YZ9900     -0.2447 
       4 O2        -3.0609   -4.0638    2.3193 O.3       1 YZ9900     -0.4453 
       5 C6         1.3727   -0.2495    4.1974 C.ar      1 YZ9900      0.0063 
       6 C5        -0.5207   -1.8154    3.7173 C.ar      1 YZ9900      0.0160 
       7 C4         2.0878   -0.2208    1.5050 C.ar      1 YZ9900      0.0796 
       8 O3         0.2801   -1.7279    0.9850 O.2       1 YZ9900     -0.4208 
       9 C2         0.6354   -1.0027    3.2776 C.ar      1 YZ9900      0.0353 
      10 C1         0.9947   -0.9884    1.9247 C.ar      1 YZ9900      0.1519 
      11 C7        -0.8073   -2.4912    1.4037 C.ar      1 YZ9900      0.3521 
      12 C12       -2.3762   -3.3514    3.2393 C.2       1 YZ9900      0.3476 
      13 O4         3.8906    1.2702    1.9628 O.3       1 YZ9900     -0.2865 
      14 O5        -1.4194   -3.1313    0.5647 O.2       1 YZ9900     -0.2442 
      15 C10        2.4649    0.5162    3.7723 C.ar      1 YZ9900      0.0422 
      16 C9        -1.2162   -2.5307    2.8254 C.ar      1 YZ9900      0.1515 
      17 C8         2.8293    0.5349    2.4209 C.ar      1 YZ9900      0.1988 
      18 H31       -4.0654   -6.2257    1.1261 H         1 YZ9900      0.0000 
      19 H32       -5.6563   -6.1434    1.9140 H         1 YZ9900      0.0000 
      20 H33       -5.1275   -4.8297    0.8406 H         1 YZ9900      0.0000 
      21 H112      -3.8348   -5.5737    3.4962 H         1 YZ9900      0.0000 
      22 H113      -4.9127   -4.1872    3.2247 H         1 YZ9900      0.0000 
      23 H6         1.1014   -0.2558    5.2428 H         1 YZ9900      0.0000 
      24 H5        -0.7899   -1.8198    4.7632 H         1 YZ9900      0.0000 
      25 H4         2.3611   -0.2129    0.4601 H         1 YZ9900      0.0000 
      26 HO4        4.0085    1.1520    1.0073 H         1 YZ9900      0.0000 
      27 H10        3.0175    1.0888    4.5026 H         1 YZ9900      0.0000 
@<TRIPOS>BOND
       1       13       17 1        
       2        7       17 ar       
       3        7       10 ar       
       4        8       10 ar       
       5        8       11 ar       
       6       14       11 2        
       7       17       15 ar       
       8       10        9 ar       
       9       11       16 ar       
      10        2        4 1        
      11        2        1 1        
      12       15        5 ar       
      13        9        5 ar       
      14        9        6 ar       
      15       16        6 ar       
      16       16       12 1        
      17        4       12 1        
      18       12        3 2        
      19       18        1 1        
      20       19        1 1        
      21       20        1 1        
      22       21        2 1        
      23       22        2 1        
      24       23        5 1        
      25       24        6 1        
      26       25        7 1        
      27       26       13 1        
      28       27       15 1        
@<TRIPOS>SUBSTRUCTURE
 1 YZ9900 10 RESIDUE 4 A YZ9900 0 ROOT

