#        scan_R01_S0015_C0000_L00001_S0001_C0003_G0010_E0001.mol2
#        Mon Jun 19 14:41:20 2017
#        Descriptor:      8    36    22     3     2     5
#        Energy - RMSD - RMSD MassCentre:     -58.9995    999.9999    999.9999
#        Receptor:       1  Surface Point:    15  Conformer:     0
#        Ligand:         1  Surface Point:     1  Conformer:     3
#        BUDE Formal Charge: 0
#        ATOM Count: 27
#        Heavy ATOM Count: 17
@<TRIPOS>MOLECULE
pdb1gcz_ligA.pdb_scan_R01_S0015_C0000_L00001_S0001_C0003_G0010_E0001
27 28 1 0 0
SMALL
GASTEIGER
@<TRIPOS>ATOM
       1 C3         3.9680    6.3002    2.2791 C.3       1 YZ9900      0.0513 
       2 C11        4.5482    5.4208    3.3831 C.3       1 YZ9900      0.2089 
       3 O1         1.9806    4.8828    3.5567 O.2       1 YZ9900     -0.2447 
       4 O2         4.0209    4.0969    3.2633 O.3       1 YZ9900     -0.4453 
       5 C6        -1.1769    0.8243    3.3353 C.ar      1 YZ9900      0.0063 
       6 C5         0.7702    2.3977    3.3529 C.ar      1 YZ9900      0.0160 
       7 C4         0.5216   -1.3402    2.8977 C.ar      1 YZ9900      0.0796 
       8 O3         2.4328    0.1284    2.9051 O.2       1 YZ9900     -0.4208 
       9 C2         0.2019    1.0365    3.2323 C.ar      1 YZ9900      0.0353 
      10 C1         1.0555   -0.0510    3.0123 C.ar      1 YZ9900      0.1519 
      11 C7         2.9628    1.4115    3.0194 C.ar      1 YZ9900      0.3521 
      12 C12        2.6847    3.9356    3.3689 C.2       1 YZ9900      0.3476 
      13 O4        -1.3329   -2.8380    2.8811 O.3       1 YZ9900     -0.2865 
      14 O5         4.1714    1.5466    2.9225 O.2       1 YZ9900     -0.2442 
      15 C10       -1.7055   -0.4670    3.2199 C.ar      1 YZ9900      0.0422 
      16 C9         2.0914    2.5849    3.2519 C.ar      1 YZ9900      0.1515 
      17 C8        -0.8573   -1.5587    3.0000 C.ar      1 YZ9900      0.1988 
      18 H31        2.8855    6.3417    2.3807 H         1 YZ9900      0.0000 
      19 H32        4.3795    7.3039    2.3621 H         1 YZ9900      0.0000 
      20 H33        4.2261    5.8809    1.3090 H         1 YZ9900      0.0000 
      21 H112       4.2788    5.8313    4.3539 H         1 YZ9900      0.0000 
      22 H113       5.6317    5.3886    3.2901 H         1 YZ9900      0.0000 
      23 H6        -1.8415    1.6585    3.5050 H         1 YZ9900      0.0000 
      24 H5         0.1033    3.2302    3.5225 H         1 YZ9900      0.0000 
      25 H4         1.1842   -2.1761    2.7280 H         1 YZ9900      0.0000 
      26 HO4       -0.6101   -3.4632    2.7147 H         1 YZ9900      0.0000 
      27 H10       -2.7735   -0.6038    3.3033 H         1 YZ9900      0.0000 
@<TRIPOS>BOND
       1       13       17 1        
       2        7       17 ar       
       3        7       10 ar       
       4        8       10 ar       
       5        8       11 ar       
       6       14       11 2        
       7       17       15 ar       
       8       10        9 ar       
       9       11       16 ar       
      10        2        4 1        
      11        2        1 1        
      12       15        5 ar       
      13        9        5 ar       
      14        9        6 ar       
      15       16        6 ar       
      16       16       12 1        
      17        4       12 1        
      18       12        3 2        
      19       18        1 1        
      20       19        1 1        
      21       20        1 1        
      22       21        2 1        
      23       22        2 1        
      24       23        5 1        
      25       24        6 1        
      26       25        7 1        
      27       26       13 1        
      28       27       15 1        
@<TRIPOS>SUBSTRUCTURE
 1 YZ9900 10 RESIDUE 4 A YZ9900 0 ROOT

