#        scan_R01_S0016_C0000_L00001_S0001_C0000_G0010_E0001.mol2
#        Mon Jun 19 14:41:20 2017
#        Descriptor:     19    21     1     2     2     4
#        Energy - RMSD - RMSD MassCentre:     -62.6180    999.9999    999.9999
#        Receptor:       1  Surface Point:    16  Conformer:     0
#        Ligand:         1  Surface Point:     1  Conformer:     0
#        BUDE Formal Charge: 0
#        ATOM Count: 27
#        Heavy ATOM Count: 17
@<TRIPOS>MOLECULE
pdb1gcz_ligA.pdb_scan_R01_S0016_C0000_L00001_S0001_C0000_G0010_E0001
27 28 1 0 0
SMALL
GASTEIGER
@<TRIPOS>ATOM
       1 C3        -3.6745    3.2975    0.7116 C.3       1 YZ9900      0.0513 
       2 C11       -2.2229    2.9864    0.4835 C.3       1 YZ9900      0.2089 
       3 O1        -1.7831    2.3684    3.8198 O.2       1 YZ9900     -0.2447 
       4 O2        -1.4697    3.1887    1.7455 O.3       1 YZ9900     -0.4453 
       5 C6        -0.1449   -2.5935    3.3253 C.ar      1 YZ9900      0.0063 
       6 C5        -0.6834   -0.1356    3.1556 C.ar      1 YZ9900      0.0160 
       7 C4         2.0428   -2.2114    1.4022 C.ar      1 YZ9900      0.0796 
       8 O3         1.4435    0.1173    1.3184 O.2       1 YZ9900     -0.4208 
       9 C2         0.1411   -1.3228    2.7717 C.ar      1 YZ9900      0.0353 
      10 C1         1.2099   -1.1568    1.8382 C.ar      1 YZ9900      0.1519 
      11 C7         0.6895    1.1593    1.5854 C.ar      1 YZ9900      0.3521 
      12 C12       -1.2880    2.2671    2.7387 C.2       1 YZ9900      0.3476 
      13 O4         2.4330   -4.5547    1.6451 O.3       1 YZ9900     -0.2865 
      14 O5         0.9346    2.1723    1.0636 O.2       1 YZ9900     -0.2442 
      15 C10        0.6653   -3.6923    2.9161 C.ar      1 YZ9900      0.0422 
      16 C9        -0.4396    1.0508    2.5185 C.ar      1 YZ9900      0.1515 
      17 C8         1.7101   -3.4751    1.9894 C.ar      1 YZ9900      0.1988 
      18 H31       -4.0652    2.6535    1.4996 H         1 YZ9900      0.0000 
      19 H32       -3.7798    4.3406    1.0098 H         1 YZ9900      0.0000 
      20 H33       -4.2320    3.1247   -0.2089 H         1 YZ9900      0.0000 
      21 H112      -1.8262    3.6482   -0.2864 H         1 YZ9900      0.0000 
      22 H113      -2.1196    1.9504    0.1608 H         1 YZ9900      0.0000 
      23 H6        -0.9492   -2.7259    4.0336 H         1 YZ9900      0.0000 
      24 H5        -1.4489   -0.2122    3.9135 H         1 YZ9900      0.0000 
      25 H4         2.8497   -2.0781    0.6969 H         1 YZ9900      0.0000 
      26 HO4        1.9020   -5.1331    1.0928 H         1 YZ9900      0.0000 
      27 H10        0.4826   -4.6812    3.3101 H         1 YZ9900      0.0000 
@<TRIPOS>BOND
       1       13       17 1        
       2        7       17 ar       
       3        7       10 ar       
       4        8       10 ar       
       5        8       11 ar       
       6       14       11 2        
       7       17       15 ar       
       8       10        9 ar       
       9       11       16 ar       
      10        2        4 1        
      11        2        1 1        
      12       15        5 ar       
      13        9        5 ar       
      14        9        6 ar       
      15       16        6 ar       
      16       16       12 1        
      17        4       12 1        
      18       12        3 2        
      19       18        1 1        
      20       19        1 1        
      21       20        1 1        
      22       21        2 1        
      23       22        2 1        
      24       23        5 1        
      25       24        6 1        
      26       25        7 1        
      27       26       13 1        
      28       27       15 1        
@<TRIPOS>SUBSTRUCTURE
 1 YZ9900 10 RESIDUE 4 A YZ9900 0 ROOT

