#        scan_R01_S0016_C0000_L00001_S0001_C0000_G0010_E0001.mol2
#        Mon Jun 19 14:12:56 2017
#        Descriptor:     17    24    36     2     2     4
#        Energy - RMSD - RMSD MassCentre:     -54.9229    999.9999    999.9999
#        Receptor:       1  Surface Point:    16  Conformer:     0
#        Ligand:         1  Surface Point:     1  Conformer:     0
#        BUDE Formal Charge: 0
#        ATOM Count: 27
#        Heavy ATOM Count: 17
@<TRIPOS>MOLECULE
pdb1gcz_ligA.pdb_scan_R01_S0016_C0000_L00001_S0001_C0000_G0010_E0001
27 28 1 0 0
SMALL
GASTEIGER
@<TRIPOS>ATOM
       1 C3        -3.1234    3.5118    0.0133 C.3       1 YZ9900      0.0513 
       2 C11       -1.6990    3.2899    0.4348 C.3       1 YZ9900      0.2089 
       3 O1        -2.7396    1.7137    3.2876 O.2       1 YZ9900     -0.2447 
       4 O2        -1.6406    3.1133    1.9066 O.3       1 YZ9900     -0.4453 
       5 C6        -0.3517   -2.8704    2.3752 C.ar      1 YZ9900      0.0063 
       6 C5        -1.1062   -0.4754    2.6093 C.ar      1 YZ9900      0.0160 
       7 C4         2.3891   -1.9243    1.9033 C.ar      1 YZ9900      0.0796 
       8 O3         1.5611    0.3215    2.1472 O.2       1 YZ9900     -0.4208 
       9 C2        -0.0340   -1.4913    2.3745 C.ar      1 YZ9900      0.0353 
      10 C1         1.3053   -1.0506    2.1436 C.ar      1 YZ9900      0.1519 
      11 C7         0.6252    1.2337    2.2800 C.ar      1 YZ9900      0.3521 
      12 C12       -1.7982    1.9398    2.5900 C.2       1 YZ9900      0.3476 
      13 O4         2.9633   -4.2324    1.6893 O.3       1 YZ9900     -0.2865 
      14 O5         0.9302    2.3571    2.2200 O.2       1 YZ9900     -0.2442 
      15 C10        0.7064   -3.7944    2.1351 C.ar      1 YZ9900      0.0422 
      16 C9        -0.7753    0.8478    2.4966 C.ar      1 YZ9900      0.1515 
      17 C8         2.0141   -3.3070    1.9117 C.ar      1 YZ9900      0.1988 
      18 H31       -3.7311    2.6613    0.3225 H         1 YZ9900      0.0000 
      19 H32       -3.5036    4.4193    0.4825 H         1 YZ9900      0.0000 
      20 H33       -3.1694    3.6165   -1.0706 H         1 YZ9900      0.0000 
      21 H112      -1.0968    4.1521    0.1482 H         1 YZ9900      0.0000 
      22 H113      -1.3103    2.3965   -0.0541 H         1 YZ9900      0.0000 
      23 H6        -1.3612   -3.2109    2.5518 H         1 YZ9900      0.0000 
      24 H5        -2.1122   -0.7771    2.8605 H         1 YZ9900      0.0000 
      25 H4         3.3994   -1.5839    1.7305 H         1 YZ9900      0.0000 
      26 HO4        2.8323   -4.6240    0.8227 H         1 YZ9900      0.0000 
      27 H10        0.5110   -4.8566    2.1238 H         1 YZ9900      0.0000 
@<TRIPOS>BOND
       1       13       17 1        
       2        7       17 ar       
       3        7       10 ar       
       4        8       10 ar       
       5        8       11 ar       
       6       14       11 2        
       7       17       15 ar       
       8       10        9 ar       
       9       11       16 ar       
      10        2        4 1        
      11        2        1 1        
      12       15        5 ar       
      13        9        5 ar       
      14        9        6 ar       
      15       16        6 ar       
      16       16       12 1        
      17        4       12 1        
      18       12        3 2        
      19       18        1 1        
      20       19        1 1        
      21       20        1 1        
      22       21        2 1        
      23       22        2 1        
      24       23        5 1        
      25       24        6 1        
      26       25        7 1        
      27       26       13 1        
      28       27       15 1        
@<TRIPOS>SUBSTRUCTURE
 1 YZ9900 10 RESIDUE 4 A YZ9900 0 ROOT

