#        scan_R01_S0016_C0000_L00001_S0001_C0002_G0010_E0001.mol2
#        Mon Jun 19 14:41:21 2017
#        Descriptor:      1    35    11     3     1     4
#        Energy - RMSD - RMSD MassCentre:     -57.4713    999.9999    999.9999
#        Receptor:       1  Surface Point:    16  Conformer:     0
#        Ligand:         1  Surface Point:     1  Conformer:     2
#        BUDE Formal Charge: 0
#        ATOM Count: 27
#        Heavy ATOM Count: 17
@<TRIPOS>MOLECULE
pdb1gcz_ligA.pdb_scan_R01_S0016_C0000_L00001_S0001_C0002_G0010_E0001
27 28 1 0 0
SMALL
GASTEIGER
@<TRIPOS>ATOM
       1 C3         3.4893   -7.6195    4.1520 C.3       1 YZ9900      0.0513 
       2 C11        3.2402   -6.3357    4.9383 C.3       1 YZ9900      0.2089 
       3 O1         2.6333   -3.9068    5.7411 O.2       1 YZ9900     -0.2447 
       4 O2         2.7464   -5.3250    4.0552 O.3       1 YZ9900     -0.4453 
       5 C6         0.8532    0.5128    3.7946 C.ar      1 YZ9900      0.0063 
       6 C5         1.6681   -1.8207    4.1924 C.ar      1 YZ9900      0.0160 
       7 C4         0.4879   -0.0309    1.0868 C.ar      1 YZ9900      0.0796 
       8 O3         1.2647   -2.2892    1.4117 O.2       1 YZ9900     -0.4208 
       9 C2         1.1558   -0.7592    3.2973 C.ar      1 YZ9900      0.0353 
      10 C1         0.9723   -1.0325    1.9366 C.ar      1 YZ9900      0.1519 
      11 C7         1.7466   -3.2850    2.2582 C.ar      1 YZ9900      0.3521 
      12 C12        2.4666   -4.1111    4.5755 C.2       1 YZ9900      0.3476 
      13 O4        -0.2881    2.1912    0.7087 O.3       1 YZ9900     -0.2865 
      14 O5         1.9964   -4.3785    1.7783 O.2       1 YZ9900     -0.2442 
      15 C10        0.3690    1.5107    2.9403 C.ar      1 YZ9900      0.0422 
      16 C9         1.9532   -3.0326    3.7018 C.ar      1 YZ9900      0.1515 
      17 C8         0.1833    1.2438    1.5788 C.ar      1 YZ9900      0.1988 
      18 H31        4.2326   -7.4325    3.3796 H         1 YZ9900      0.0000 
      19 H32        3.8525   -8.3922    4.8262 H         1 YZ9900      0.0000 
      20 H33        2.5603   -7.9473    3.6903 H         1 YZ9900      0.0000 
      21 H112       4.1716   -5.9990    5.3889 H         1 YZ9900      0.0000 
      22 H113       2.5064   -6.5243    5.7190 H         1 YZ9900      0.0000 
      23 H6         0.9923    0.7309    4.8432 H         1 YZ9900      0.0000 
      24 H5         1.8062   -1.5999    5.2405 H         1 YZ9900      0.0000 
      25 H4         0.3479   -0.2465    0.0378 H         1 YZ9900      0.0000 
      26 HO4       -0.3372    1.8399   -0.1942 H         1 YZ9900      0.0000 
      27 H10        0.1430    2.4843    3.3494 H         1 YZ9900      0.0000 
@<TRIPOS>BOND
       1       13       17 1        
       2        7       17 ar       
       3        7       10 ar       
       4        8       10 ar       
       5        8       11 ar       
       6       14       11 2        
       7       17       15 ar       
       8       10        9 ar       
       9       11       16 ar       
      10        2        4 1        
      11        2        1 1        
      12       15        5 ar       
      13        9        5 ar       
      14        9        6 ar       
      15       16        6 ar       
      16       16       12 1        
      17        4       12 1        
      18       12        3 2        
      19       18        1 1        
      20       19        1 1        
      21       20        1 1        
      22       21        2 1        
      23       22        2 1        
      24       23        5 1        
      25       24        6 1        
      26       25        7 1        
      27       26       13 1        
      28       27       15 1        
@<TRIPOS>SUBSTRUCTURE
 1 YZ9900 10 RESIDUE 4 A YZ9900 0 ROOT

