#        1GCZ_R01_S0001_C0000_L00004_S0001_C0004_G0010_E0001.mol2
#        Tue Jun  6 09:55:22 2017
#        Descriptor:     15    34    18     9     4    14
#        Energy - RMSD - RMSD MassCentre:     -65.0773    999.9999    999.9999
#        Receptor:       1  Surface Point:     1  Conformer:     0
#        Ligand:         4  Surface Point:     1  Conformer:     4
#        BUDE Formal Charge: 0
#        ATOM Count: 46
#        Heavy ATOM Count: 28
@<TRIPOS>MOLECULE
ZINC61563277_1GCZ_R01_S0001_C0000_L00004_S0001_C0004_G0010_E0001
 46 49 0 0 0
SMALL
USER_CHARGES
@<TRIPOS>ATOM
       1 C1         1.4180   -0.2423    7.5205 C.3       1 <0>        -0.1051 
       2 C2         0.5900   -0.0080    6.2797 C.2       1 <0>         0.1324 
       3 C3         0.9932    0.6350    5.1753 C.2       1 <0>        -0.1714 
       4 C4        -0.1572    0.6408    4.2077 C.ar      1 <0>        -0.0773 
       5 C5        -0.3679    1.1671    2.9277 C.ar      1 <0>        -0.0675 
       6 C6        -1.6098    0.8971    2.3403 C.ar      1 <0>        -0.1361 
       7 C7        -2.5580    0.1020    2.9972 C.ar      1 <0>        -0.0920 
       8 C8        -2.3240   -0.4242    4.2733 C.ar      1 <0>        -0.1265 
       9 C9        -1.1191   -0.0979    4.9072 C.ar      1 <0>         0.1084 
      10 N1        -0.6581   -0.4052    6.1384 N.pl3     1 <0>        -0.4675 
      11 C10       -1.4434   -1.1194    7.1681 C.3       1 <0>         0.1242 
      12 C11       -1.4683   -2.5951    6.8495 C.2       1 <0>         0.4463 
      13 O1        -2.4952   -3.1218    6.5396 O.2       1 <0>        -0.4704 
      14 O2        -0.3304   -3.3187    6.9150 O.3       1 <0>        -0.3437 
      15 C12       -0.4032   -4.7127    6.6046 C.3       1 <0>         0.1567 
      16 C13        0.9687   -5.3295    6.7379 C.2       1 <0>         0.2874 
      17 N2         1.5120   -6.2256    7.5404 N.2       1 <0>        -0.5106 
      18 C14        2.8537   -6.4246    7.1933 C.2       1 <0>         0.2609 
      19 N3         3.1397   -5.6616    6.2060 N.2       1 <0>        -0.3200 
      20 O3         1.9890   -4.9360    5.8750 O.3       1 <0>        -0.0928 
      21 C15        3.8071   -7.3897    7.8560 C.3       1 <0>         0.0037 
      22 C16        3.7768   -8.7094    7.1227 C.ar      1 <0>        -0.0973 
      23 C17        2.8810   -9.7147    7.5059 C.ar      1 <0>        -0.0995 
      24 C18        2.8355  -10.9308    6.8137 C.ar      1 <0>        -0.1207 
      25 C19        3.7027  -11.1622    5.7438 C.ar      1 <0>        -0.1122 
      26 C20        4.6089  -10.1657    5.3619 C.ar      1 <0>        -0.1201 
      27 C21        4.6499   -8.9500    6.0552 C.ar      1 <0>        -0.1046 
      28 Br1        2.6800    1.3936    4.8387 Br        1 <0>        -0.0155 
      29 H1         1.5148   -1.3118    7.6944 H         1 <0>         0.0903 
      30 H2         0.9295    0.2219    8.3746 H         1 <0>         0.0953 
      31 H3         2.4051    0.1945    7.3848 H         1 <0>         0.0712 
      32 H4         0.3704    1.7512    2.3983 H         1 <0>         0.1274 
      33 H5        -1.8132    1.2994    1.3589 H         1 <0>         0.1276 
      34 H6        -3.4967   -0.1219    2.5123 H         1 <0>         0.1296 
      35 H7        -3.0755   -1.0654    4.7096 H         1 <0>         0.1206 
      36 H8        -2.4607   -0.7343    7.1793 H         1 <0>         0.1394 
      37 H9        -0.9875   -0.9661    8.1440 H         1 <0>         0.1404 
      38 H10       -0.7604   -4.8383    5.5846 H         1 <0>         0.1240 
      39 H11       -1.0897   -5.2014    7.2928 H         1 <0>         0.1139 
      40 H12        3.5070   -7.5420    8.8907 H         1 <0>         0.1085 
      41 H13        4.8150   -6.9808    7.8265 H         1 <0>         0.1144 
      42 H14        2.2171   -9.5636    8.3442 H         1 <0>         0.1277 
      43 H15        2.1367  -11.6963    7.1170 H         1 <0>         0.1259 
      44 H16        3.6716  -12.0971    5.2041 H         1 <0>         0.1247 
      45 H17        5.2776  -10.3371    4.5313 H         1 <0>         0.1255 
      46 H18        5.3669   -8.1989    5.7583 H         1 <0>         0.1245 
@<TRIPOS>BOND
       1        1        2 1        
       2        1       29 1        
       3        1       30 1        
       4        1       31 1        
       5        2       10 1        
       6        2        3 2        
       7        3        4 1        
       8        3       28 1        
       9        4        9 ar       
      10        4        5 ar       
      11        5        6 ar       
      12        5       32 1        
      13        6        7 ar       
      14        6       33 1        
      15        7        8 ar       
      16        7       34 1        
      17        8        9 ar       
      18        8       35 1        
      19        9       10 1        
      20       10       11 1        
      21       11       12 1        
      22       11       36 1        
      23       11       37 1        
      24       12       13 2        
      25       12       14 1        
      26       14       15 1        
      27       15       16 1        
      28       15       38 1        
      29       15       39 1        
      30       16       20 1        
      31       16       17 2        
      32       17       18 1        
      33       18       19 2        
      34       18       21 1        
      35       19       20 1        
      36       21       22 1        
      37       21       40 1        
      38       21       41 1        
      39       22       27 ar       
      40       22       23 ar       
      41       23       24 ar       
      42       23       42 1        
      43       24       25 ar       
      44       24       43 1        
      45       25       26 ar       
      46       25       44 1        
      47       26       27 ar       
      48       26       45 1        
      49       27       46 1        

