#        scan_R01_S0016_C0000_L00001_S0001_C0003_G0010_E0001.mol2
#        Mon Jun 19 14:12:58 2017
#        Descriptor:     17    18    30     3     1     4
#        Energy - RMSD - RMSD MassCentre:     -55.9154    999.9999    999.9999
#        Receptor:       1  Surface Point:    16  Conformer:     0
#        Ligand:         1  Surface Point:     1  Conformer:     3
#        BUDE Formal Charge: 0
#        ATOM Count: 27
#        Heavy ATOM Count: 17
@<TRIPOS>MOLECULE
pdb1gcz_ligA.pdb_scan_R01_S0016_C0000_L00001_S0001_C0003_G0010_E0001
27 28 1 0 0
SMALL
GASTEIGER
@<TRIPOS>ATOM
       1 C3         4.7859   -6.1157    4.9184 C.3       1 YZ9900      0.0513 
       2 C11        3.7695   -6.5631    3.8718 C.3       1 YZ9900      0.2089 
       3 O1         2.4628   -4.6470    5.1101 O.2       1 YZ9900     -0.2447 
       4 O2         3.2458   -5.4164    3.1967 O.3       1 YZ9900     -0.4453 
       5 C6         0.1407   -0.1823    4.0307 C.ar      1 YZ9900      0.0063 
       6 C5         1.3770   -2.3587    3.9845 C.ar      1 YZ9900      0.0160 
       7 C4         0.4747    0.1146    1.2808 C.ar      1 YZ9900      0.0796 
       8 O3         1.6722   -1.9746    1.1774 O.2       1 YZ9900     -0.4208 
       9 C2         0.8263   -1.1637    3.3070 C.ar      1 YZ9900      0.0353 
      10 C1         0.9942   -1.0146    1.9252 C.ar      1 YZ9900      0.1519 
      11 C7         2.1887   -3.0976    1.8196 C.ar      1 YZ9900      0.3521 
      12 C12        2.5907   -4.4929    3.9320 C.2       1 YZ9900      0.3476 
      13 O4        -0.7027    2.1869    1.3255 O.3       1 YZ9900     -0.2865 
      14 O5         2.7790   -3.9262    1.1462 O.2       1 YZ9900     -0.2442 
      15 C10       -0.3768    0.9449    3.3813 C.ar      1 YZ9900      0.0422 
      16 C9         2.0306   -3.2890    3.2786 C.ar      1 YZ9900      0.1515 
      17 C8        -0.2123    1.0999    1.9998 C.ar      1 YZ9900      0.1988 
      18 H31        4.2967   -5.4714    5.6460 H         1 YZ9900      0.0000 
      19 H32        5.1943   -6.9889    5.4229 H         1 YZ9900      0.0000 
      20 H33        5.5902   -5.5685    4.4313 H         1 YZ9900      0.0000 
      21 H112       2.9575   -7.0983    4.3594 H         1 YZ9900      0.0000 
      22 H113       4.2546   -7.2175    3.1507 H         1 YZ9900      0.0000 
      23 H6         0.0073   -0.2906    5.0970 H         1 YZ9900      0.0000 
      24 H5         1.2422   -2.4645    5.0508 H         1 YZ9900      0.0000 
      25 H4         0.6067    0.2252    0.2146 H         1 YZ9900      0.0000 
      26 HO4       -0.4827    2.1387    0.3820 H         1 YZ9900      0.0000 
      27 H10       -0.9021    1.6879    3.9631 H         1 YZ9900      0.0000 
@<TRIPOS>BOND
       1       13       17 1        
       2        7       17 ar       
       3        7       10 ar       
       4        8       10 ar       
       5        8       11 ar       
       6       14       11 2        
       7       17       15 ar       
       8       10        9 ar       
       9       11       16 ar       
      10        2        4 1        
      11        2        1 1        
      12       15        5 ar       
      13        9        5 ar       
      14        9        6 ar       
      15       16        6 ar       
      16       16       12 1        
      17        4       12 1        
      18       12        3 2        
      19       18        1 1        
      20       19        1 1        
      21       20        1 1        
      22       21        2 1        
      23       22        2 1        
      24       23        5 1        
      25       24        6 1        
      26       25        7 1        
      27       26       13 1        
      28       27       15 1        
@<TRIPOS>SUBSTRUCTURE
 1 YZ9900 10 RESIDUE 4 A YZ9900 0 ROOT

