#        scan_R01_S0017_C0000_L00001_S0001_C0000_G0010_E0001.mol2
#        Mon Jun 19 14:41:22 2017
#        Descriptor:     26    29    36     1     3     4
#        Energy - RMSD - RMSD MassCentre:     -21.0152    999.9999    999.9999
#        Receptor:       1  Surface Point:    17  Conformer:     0
#        Ligand:         1  Surface Point:     1  Conformer:     0
#        BUDE Formal Charge: 0
#        ATOM Count: 27
#        Heavy ATOM Count: 17
@<TRIPOS>MOLECULE
pdb1gcz_ligA.pdb_scan_R01_S0017_C0000_L00001_S0001_C0000_G0010_E0001
27 28 1 0 0
SMALL
GASTEIGER
@<TRIPOS>ATOM
       1 C3         3.4226    2.7116    0.1169 C.3       1 YZ9900      0.0513 
       2 C11        2.8456    1.6887    1.0532 C.3       1 YZ9900      0.2089 
       3 O1         0.6975    4.0164    2.3468 O.2       1 YZ9900     -0.2447 
       4 O2         2.2338    2.3741    2.2180 O.3       1 YZ9900     -0.4453 
       5 C6        -3.7483    1.4922    1.1584 C.ar      1 YZ9900      0.0063 
       6 C5        -1.4380    2.2626    1.8135 C.ar      1 YZ9900      0.0160 
       7 C4        -3.1882   -1.1174    2.3856 C.ar      1 YZ9900      0.0796 
       8 O3        -1.0085   -0.2784    2.9632 O.2       1 YZ9900     -0.4208 
       9 C2        -2.5065    1.2167    1.7787 C.ar      1 YZ9900      0.0353 
      10 C1        -2.2530   -0.0586    2.3708 C.ar      1 YZ9900      0.1519 
      11 C7        -0.0306    0.5985    2.9436 C.ar      1 YZ9900      0.3521 
      12 C12        0.9556    2.8523    2.2987 C.2       1 YZ9900      0.3476 
      13 O4        -5.3919   -1.7216    1.6919 O.3       1 YZ9900     -0.2865 
      14 O5         0.9907    0.3044    3.4222 O.2       1 YZ9900     -0.2442 
      15 C10       -4.7264    0.4557    1.1441 C.ar      1 YZ9900      0.0422 
      16 C9        -0.2179    1.9197    2.3298 C.ar      1 YZ9900      0.1515 
      17 C8        -4.4258   -0.7884    1.7434 C.ar      1 YZ9900      0.1988 
      18 H31        2.6357    3.3925   -0.2080 H         1 YZ9900      0.0000 
      19 H32        4.2014    3.2755    0.6304 H         1 YZ9900      0.0000 
      20 H33        3.8499    2.2095   -0.7510 H         1 YZ9900      0.0000 
      21 H112       3.6378    1.0240    1.3978 H         1 YZ9900      0.0000 
      22 H113       2.0845    1.1077    0.5324 H         1 YZ9900      0.0000 
      23 H6        -3.9479    2.4547    0.7113 H         1 YZ9900      0.0000 
      24 H5        -1.6239    3.2595    1.4421 H         1 YZ9900      0.0000 
      25 H4        -2.9899   -2.0787    2.8361 H         1 YZ9900      0.0000 
      26 HO4       -5.4808   -2.0415    0.7912 H         1 YZ9900      0.0000 
      27 H10       -5.6878    0.6194    0.6798 H         1 YZ9900      0.0000 
@<TRIPOS>BOND
       1       13       17 1        
       2        7       17 ar       
       3        7       10 ar       
       4        8       10 ar       
       5        8       11 ar       
       6       14       11 2        
       7       17       15 ar       
       8       10        9 ar       
       9       11       16 ar       
      10        2        4 1        
      11        2        1 1        
      12       15        5 ar       
      13        9        5 ar       
      14        9        6 ar       
      15       16        6 ar       
      16       16       12 1        
      17        4       12 1        
      18       12        3 2        
      19       18        1 1        
      20       19        1 1        
      21       20        1 1        
      22       21        2 1        
      23       22        2 1        
      24       23        5 1        
      25       24        6 1        
      26       25        7 1        
      27       26       13 1        
      28       27       15 1        
@<TRIPOS>SUBSTRUCTURE
 1 YZ9900 10 RESIDUE 4 A YZ9900 0 ROOT

