#        scan_R01_S0017_C0000_L00001_S0001_C0003_G0010_E0001.mol2
#        Mon Jun 19 14:41:23 2017
#        Descriptor:     36    16    26     2     1     6
#        Energy - RMSD - RMSD MassCentre:     -23.3049    999.9999    999.9999
#        Receptor:       1  Surface Point:    17  Conformer:     0
#        Ligand:         1  Surface Point:     1  Conformer:     3
#        BUDE Formal Charge: 0
#        ATOM Count: 27
#        Heavy ATOM Count: 17
@<TRIPOS>MOLECULE
pdb1gcz_ligA.pdb_scan_R01_S0017_C0000_L00001_S0001_C0003_G0010_E0001
27 28 1 0 0
SMALL
GASTEIGER
@<TRIPOS>ATOM
       1 C3        -2.0668   -5.7145   -0.7458 C.3       1 YZ9900      0.0513 
       2 C11       -0.8473   -6.1057    0.0839 C.3       1 YZ9900      0.2089 
       3 O1        -0.4390   -3.5369   -0.2993 O.2       1 YZ9900     -0.2447 
       4 O2        -0.6839   -5.1752    1.1574 O.3       1 YZ9900     -0.4453 
       5 C6         0.2858    0.7500    2.4552 C.ar      1 YZ9900      0.0063 
       6 C5        -0.1002   -1.5850    1.6390 C.ar      1 YZ9900      0.0160 
       7 C4         0.1810   -0.1124    5.1022 C.ar      1 YZ9900      0.0796 
       8 O3        -0.1930   -2.3791    4.3731 O.2       1 YZ9900     -0.4208 
       9 C2         0.0717   -0.6040    2.7338 C.ar      1 YZ9900      0.0353 
      10 C1         0.0189   -1.0374    4.0639 C.ar      1 YZ9900      0.1519 
      11 C7        -0.3541   -3.2985    3.3392 C.ar      1 YZ9900      0.3521 
      12 C12       -0.4792   -3.8778    0.8453 C.2       1 YZ9900      0.3476 
      13 O4         0.5486    2.1113    5.8787 O.3       1 YZ9900     -0.2865 
      14 O5        -0.5386   -4.4685    3.6318 O.2       1 YZ9900     -0.2442 
      15 C10        0.4473    1.6708    3.4974 C.ar      1 YZ9900      0.0422 
      16 C9        -0.3045   -2.8770    1.9214 C.ar      1 YZ9900      0.1515 
      17 C8         0.3956    1.2438    4.8295 C.ar      1 YZ9900      0.1988 
      18 H31       -1.9181   -4.7199   -1.1612 H         1 YZ9900      0.0000 
      19 H32       -2.1989   -6.4301   -1.5547 H         1 YZ9900      0.0000 
      20 H33       -2.9511   -5.7152   -0.1122 H         1 YZ9900      0.0000 
      21 H112       0.0401   -6.0917   -0.5454 H         1 YZ9900      0.0000 
      22 H113      -0.9893   -7.1051    0.4896 H         1 YZ9900      0.0000 
      23 H6         0.3277    1.0917    1.4315 H         1 YZ9900      0.0000 
      24 H5        -0.0579   -1.2406    0.6163 H         1 YZ9900      0.0000 
      25 H4         0.1396   -0.4516    6.1268 H         1 YZ9900      0.0000 
      26 HO4        0.4669    1.6481    6.7271 H         1 YZ9900      0.0000 
      27 H10        0.6114    2.7105    3.2553 H         1 YZ9900      0.0000 
@<TRIPOS>BOND
       1       13       17 1        
       2        7       17 ar       
       3        7       10 ar       
       4        8       10 ar       
       5        8       11 ar       
       6       14       11 2        
       7       17       15 ar       
       8       10        9 ar       
       9       11       16 ar       
      10        2        4 1        
      11        2        1 1        
      12       15        5 ar       
      13        9        5 ar       
      14        9        6 ar       
      15       16        6 ar       
      16       16       12 1        
      17        4       12 1        
      18       12        3 2        
      19       18        1 1        
      20       19        1 1        
      21       20        1 1        
      22       21        2 1        
      23       22        2 1        
      24       23        5 1        
      25       24        6 1        
      26       25        7 1        
      27       26       13 1        
      28       27       15 1        
@<TRIPOS>SUBSTRUCTURE
 1 YZ9900 10 RESIDUE 4 A YZ9900 0 ROOT

