#        scan_R01_S0017_C0000_L00001_S0001_C0003_G0010_E0001.mol2
#        Mon Jun 19 14:13:00 2017
#        Descriptor:     24    34     5     1     1     5
#        Energy - RMSD - RMSD MassCentre:     -24.7584    999.9999    999.9999
#        Receptor:       1  Surface Point:    17  Conformer:     0
#        Ligand:         1  Surface Point:     1  Conformer:     3
#        BUDE Formal Charge: 0
#        ATOM Count: 27
#        Heavy ATOM Count: 17
@<TRIPOS>MOLECULE
pdb1gcz_ligA.pdb_scan_R01_S0017_C0000_L00001_S0001_C0003_G0010_E0001
27 28 1 0 0
SMALL
GASTEIGER
@<TRIPOS>ATOM
       1 C3        -7.1796   -3.7146    4.8613 C.3       1 YZ9900      0.0513 
       2 C11       -6.2134   -4.6805    4.1815 C.3       1 YZ9900      0.2089 
       3 O1        -5.7913   -2.4597    2.8392 O.2       1 YZ9900     -0.2447 
       4 O2        -4.9253   -4.0686    4.0751 O.3       1 YZ9900     -0.4453 
       5 C6        -1.9087    0.7074    1.6621 C.ar      1 YZ9900      0.0063 
       6 C5        -3.3828   -1.1263    2.5175 C.ar      1 YZ9900      0.0160 
       7 C4         0.3078   -0.4384    2.9015 C.ar      1 YZ9900      0.0796 
       8 O3        -1.0641   -2.2284    3.7518 O.2       1 YZ9900     -0.4208 
       9 C2        -2.0594   -0.4754    2.3936 C.ar      1 YZ9900      0.0353 
      10 C1        -0.9457   -1.0512    3.0165 C.ar      1 YZ9900      0.1519 
      11 C7        -2.3117   -2.8373    3.8655 C.ar      1 YZ9900      0.3521 
      12 C12       -4.8231   -2.9281    3.3599 C.2       1 YZ9900      0.3476 
      13 O4         1.7110    1.3080    2.0867 O.3       1 YZ9900     -0.2865 
      14 O5        -2.3934   -3.8675    4.5138 O.2       1 YZ9900     -0.2442 
      15 C10       -0.6528    1.3161    1.5504 C.ar      1 YZ9900      0.0422 
      16 C9        -3.5112   -2.2576    3.2208 C.ar      1 YZ9900      0.1515 
      17 C8         0.4647    0.7453    2.1708 C.ar      1 YZ9900      0.1988 
      18 H31       -7.2677   -2.8099    4.2632 H         1 YZ9900      0.0000 
      19 H32       -8.1562   -4.1851    4.9544 H         1 YZ9900      0.0000 
      20 H33       -6.8027   -3.4614    5.8499 H         1 YZ9900      0.0000 
      21 H112      -6.5820   -4.9235    3.1872 H         1 YZ9900      0.0000 
      22 H113      -6.1341   -5.5907    4.7722 H         1 YZ9900      0.0000 
      23 H6        -2.7633    1.1573    1.1789 H         1 YZ9900      0.0000 
      24 H5        -4.2358   -0.6743    2.0333 H         1 YZ9900      0.0000 
      25 H4         1.1641   -0.8863    3.3838 H         1 YZ9900      0.0000 
      26 HO4        2.3602    0.7909    2.5887 H         1 YZ9900      0.0000 
      27 H10       -0.5634    2.2287    0.9799 H         1 YZ9900      0.0000 
@<TRIPOS>BOND
       1       13       17 1        
       2        7       17 ar       
       3        7       10 ar       
       4        8       10 ar       
       5        8       11 ar       
       6       14       11 2        
       7       17       15 ar       
       8       10        9 ar       
       9       11       16 ar       
      10        2        4 1        
      11        2        1 1        
      12       15        5 ar       
      13        9        5 ar       
      14        9        6 ar       
      15       16        6 ar       
      16       16       12 1        
      17        4       12 1        
      18       12        3 2        
      19       18        1 1        
      20       19        1 1        
      21       20        1 1        
      22       21        2 1        
      23       22        2 1        
      24       23        5 1        
      25       24        6 1        
      26       25        7 1        
      27       26       13 1        
      28       27       15 1        
@<TRIPOS>SUBSTRUCTURE
 1 YZ9900 10 RESIDUE 4 A YZ9900 0 ROOT

