#        1GCZ_R01_S0001_C0000_L00004_S0001_C0004_G0010_E0001.mol2
#        Tue Jun  6 14:05:18 2017
#        Descriptor:      6     3    10     8     8    12
#        Energy - RMSD - RMSD MassCentre:     -71.5634    999.9999    999.9999
#        Receptor:       1  Surface Point:     1  Conformer:     0
#        Ligand:         4  Surface Point:     1  Conformer:     4
#        BUDE Formal Charge: 0
#        ATOM Count: 46
#        Heavy ATOM Count: 28
@<TRIPOS>MOLECULE
ZINC61563277_1GCZ_R01_S0001_C0000_L00004_S0001_C0004_G0010_E0001
 46 49 0 0 0
SMALL
USER_CHARGES
@<TRIPOS>ATOM
       1 C1        -0.8028   -2.8521    6.7979 C.3       1 <0>        -0.1051 
       2 C2        -0.0939   -1.7887    7.6020 C.2       1 <0>         0.1324 
       3 C3         1.1199   -1.9022    8.1582 C.2       1 <0>        -0.1714 
       4 C4         1.4160   -0.6112    8.8693 C.ar      1 <0>        -0.0773 
       5 C5         2.4797   -0.1318    9.6430 C.ar      1 <0>        -0.0675 
       6 C6         2.3759    1.1899   10.0931 C.ar      1 <0>        -0.1361 
       7 C7         1.2793    1.9863    9.7377 C.ar      1 <0>        -0.0920 
       8 C8         0.2302    1.4912    8.9538 C.ar      1 <0>        -0.1265 
       9 C9         0.2806    0.1482    8.5619 C.ar      1 <0>         0.1084 
      10 N1        -0.6017   -0.6027    7.8686 N.pl3     1 <0>        -0.4675 
      11 C10       -1.9390   -0.1367    7.4429 C.3       1 <0>         0.1242 
      12 C11       -1.8007    0.7534    6.2311 C.2       1 <0>         0.4463 
      13 O1        -2.0666    1.9157    6.3105 O.2       1 <0>        -0.4704 
      14 O2        -1.3766    0.2355    5.0586 O.3       1 <0>        -0.3437 
      15 C12       -1.2612    1.1172    3.9387 C.3       1 <0>         0.1567 
      16 C13       -0.7753    0.3422    2.7372 C.2       1 <0>         0.2874 
      17 N2        -1.2947    0.0153    1.5685 N.2       1 <0>        -0.5106 
      18 C14       -0.3671   -0.7244    0.8253 C.2       1 <0>         0.2609 
      19 N3         0.6987   -0.8633    1.5205 N.2       1 <0>        -0.3200 
      20 O3         0.5009   -0.2161    2.7461 O.3       1 <0>        -0.0928 
      21 C15       -0.5742   -1.2581   -0.5719 C.3       1 <0>         0.0037 
      22 C16       -0.0625   -0.2523   -1.5751 C.ar      1 <0>        -0.0973 
      23 C17       -0.9129    0.7332   -2.0904 C.ar      1 <0>        -0.0995 
      24 C18       -0.4353    1.6806   -3.0038 C.ar      1 <0>        -0.1207 
      25 C19        0.8944    1.6377   -3.4287 C.ar      1 <0>        -0.1122 
      26 C20        1.7479    0.6483   -2.9261 C.ar      1 <0>        -0.1201 
      27 C21        1.2672   -0.2961   -2.0112 C.ar      1 <0>        -0.1046 
      28 Br1        2.2866   -3.3742    8.0802 Br        1 <0>        -0.0155 
      29 H1        -1.0013   -2.4764    5.7964 H         1 <0>         0.0903 
      30 H2        -1.7425   -3.1067    7.2833 H         1 <0>         0.0953 
      31 H3        -0.1743   -3.7380    6.7355 H         1 <0>         0.0712 
      32 H4         3.3462   -0.7264    9.8924 H         1 <0>         0.1274 
      33 H5         3.1713    1.5892   10.7049 H         1 <0>         0.1276 
      34 H6         1.2348    3.0137   10.0677 H         1 <0>         0.1296 
      35 H7        -0.5661    2.1662    8.6770 H         1 <0>         0.1206 
      36 H8        -2.4018    0.4235    8.2525 H         1 <0>         0.1394 
      37 H9        -2.5607   -0.9944    7.1946 H         1 <0>         0.1404 
      38 H10       -0.5514    1.9080    4.1722 H         1 <0>         0.1240 
      39 H11       -2.2333    1.5542    3.7203 H         1 <0>         0.1139 
      40 H12       -1.6353   -1.4311   -0.7397 H         1 <0>         0.1085 
      41 H13       -0.0310   -2.1939   -0.6863 H         1 <0>         0.1144 
      42 H14       -1.9499    0.7700   -1.7909 H         1 <0>         0.1277 
      43 H15       -1.1010    2.4381   -3.3903 H         1 <0>         0.1259 
      44 H16        1.2700    2.3666   -4.1314 H         1 <0>         0.1247 
      45 H17        2.7787    0.6143   -3.2468 H         1 <0>         0.1255 
      46 H18        1.9347   -1.0629   -1.6468 H         1 <0>         0.1245 
@<TRIPOS>BOND
       1        1        2 1        
       2        1       29 1        
       3        1       30 1        
       4        1       31 1        
       5        2       10 1        
       6        2        3 2        
       7        3        4 1        
       8        3       28 1        
       9        4        9 ar       
      10        4        5 ar       
      11        5        6 ar       
      12        5       32 1        
      13        6        7 ar       
      14        6       33 1        
      15        7        8 ar       
      16        7       34 1        
      17        8        9 ar       
      18        8       35 1        
      19        9       10 1        
      20       10       11 1        
      21       11       12 1        
      22       11       36 1        
      23       11       37 1        
      24       12       13 2        
      25       12       14 1        
      26       14       15 1        
      27       15       16 1        
      28       15       38 1        
      29       15       39 1        
      30       16       20 1        
      31       16       17 2        
      32       17       18 1        
      33       18       19 2        
      34       18       21 1        
      35       19       20 1        
      36       21       22 1        
      37       21       40 1        
      38       21       41 1        
      39       22       27 ar       
      40       22       23 ar       
      41       23       24 ar       
      42       23       42 1        
      43       24       25 ar       
      44       24       43 1        
      45       25       26 ar       
      46       25       44 1        
      47       26       27 ar       
      48       26       45 1        
      49       27       46 1        

