#        scan_R01_S0018_C0000_L00001_S0001_C0000_G0010_E0001.mol2
#        Mon Jun 19 14:13:02 2017
#        Descriptor:     20    22    22     2     3     4
#        Energy - RMSD - RMSD MassCentre:     -31.1211    999.9999    999.9999
#        Receptor:       1  Surface Point:    18  Conformer:     0
#        Ligand:         1  Surface Point:     1  Conformer:     0
#        BUDE Formal Charge: 0
#        ATOM Count: 27
#        Heavy ATOM Count: 17
@<TRIPOS>MOLECULE
pdb1gcz_ligA.pdb_scan_R01_S0018_C0000_L00001_S0001_C0000_G0010_E0001
27 28 1 0 0
SMALL
GASTEIGER
@<TRIPOS>ATOM
       1 C3         4.2964   -0.4823   -0.3194 C.3       1 YZ9900      0.0513 
       2 C11        2.8304   -0.7938   -0.2205 C.3       1 YZ9900      0.2089 
       3 O1         2.9373   -0.4416    3.1810 O.2       1 YZ9900     -0.2447 
       4 O2         2.5230   -1.2994    1.1399 O.3       1 YZ9900     -0.4453 
       5 C6        -0.6105    3.4114    3.5218 C.ar      1 YZ9900      0.0063 
       6 C5         0.8115    1.3943    3.0034 C.ar      1 YZ9900      0.0160 
       7 C4        -2.8328    2.1806    2.0463 C.ar      1 YZ9900      0.0796 
       8 O3        -1.3891    0.3054    1.6124 O.2       1 YZ9900     -0.4208 
       9 C2        -0.4813    2.1406    2.9125 C.ar      1 YZ9900      0.0353 
      10 C1        -1.5738    1.5581    2.1996 C.ar      1 YZ9900      0.1519 
      11 C7        -0.2430   -0.3365    1.6179 C.ar      1 YZ9900      0.3521 
      12 C12        2.2153   -0.5432    2.2363 C.2       1 YZ9900      0.3476 
      13 O4        -4.0609    4.1537    2.5950 O.3       1 YZ9900     -0.2865 
      14 O5        -0.1731   -1.3560    1.0571 O.2       1 YZ9900     -0.2442 
      15 C10       -1.8610    4.0834    3.3945 C.ar      1 YZ9900      0.0422 
      16 C9         0.9261    0.2184    2.3127 C.ar      1 YZ9900      0.1515 
      17 C8        -2.9102    3.4639    2.6784 C.ar      1 YZ9900      0.1988 
      18 H31        4.5627    0.2583    0.4349 H         1 YZ9900      0.0000 
      19 H32        4.8729   -1.3924   -0.1539 H         1 YZ9900      0.0000 
      20 H33        4.5177   -0.0871   -1.3107 H         1 YZ9900      0.0000 
      21 H112       2.5699   -1.5533   -0.9578 H         1 YZ9900      0.0000 
      22 H113       2.2529    0.1108   -0.4110 H         1 YZ9900      0.0000 
      23 H6         0.2100    3.8566    4.0646 H         1 YZ9900      0.0000 
      24 H5         1.6309    1.7722    3.5968 H         1 YZ9900      0.0000 
      25 H4        -3.6546    1.7336    1.5067 H         1 YZ9900      0.0000 
      26 HO4       -3.9428    4.9043    2.0083 H         1 YZ9900      0.0000 
      27 H10       -2.0053    5.0562    3.8408 H         1 YZ9900      0.0000 
@<TRIPOS>BOND
       1       13       17 1        
       2        7       17 ar       
       3        7       10 ar       
       4        8       10 ar       
       5        8       11 ar       
       6       14       11 2        
       7       17       15 ar       
       8       10        9 ar       
       9       11       16 ar       
      10        2        4 1        
      11        2        1 1        
      12       15        5 ar       
      13        9        5 ar       
      14        9        6 ar       
      15       16        6 ar       
      16       16       12 1        
      17        4       12 1        
      18       12        3 2        
      19       18        1 1        
      20       19        1 1        
      21       20        1 1        
      22       21        2 1        
      23       22        2 1        
      24       23        5 1        
      25       24        6 1        
      26       25        7 1        
      27       26       13 1        
      28       27       15 1        
@<TRIPOS>SUBSTRUCTURE
 1 YZ9900 10 RESIDUE 4 A YZ9900 0 ROOT

