#        scan_R01_S0018_C0000_L00001_S0001_C0002_G0010_E0001.mol2
#        Mon Jun 19 14:41:24 2017
#        Descriptor:      3    36    33     2     1     4
#        Energy - RMSD - RMSD MassCentre:     -34.6288    999.9999    999.9999
#        Receptor:       1  Surface Point:    18  Conformer:     0
#        Ligand:         1  Surface Point:     1  Conformer:     2
#        BUDE Formal Charge: 0
#        ATOM Count: 27
#        Heavy ATOM Count: 17
@<TRIPOS>MOLECULE
pdb1gcz_ligA.pdb_scan_R01_S0018_C0000_L00001_S0001_C0002_G0010_E0001
27 28 1 0 0
SMALL
GASTEIGER
@<TRIPOS>ATOM
       1 C3        -6.5426    2.3437    2.8118 C.3       1 YZ9900      0.0513 
       2 C11       -5.8264    1.3134    3.6801 C.3       1 YZ9900      0.2089 
       3 O1        -4.1550   -0.4171    4.7403 O.2       1 YZ9900     -0.2447 
       4 O2        -4.5685    0.9823    3.0859 O.3       1 YZ9900     -0.4453 
       5 C6         0.4611   -2.4769    3.7712 C.ar      1 YZ9900      0.0063 
       6 C5        -1.6849   -1.1880    3.7470 C.ar      1 YZ9900      0.0160 
       7 C4         1.2553   -1.2815    1.3833 C.ar      1 YZ9900      0.0796 
       8 O3        -0.7940   -0.0150    1.3088 O.2       1 YZ9900     -0.4208 
       9 C2        -0.3786   -1.5460    3.1505 C.ar      1 YZ9900      0.0353 
      10 C1         0.0203   -0.9454    1.9506 C.ar      1 YZ9900      0.1519 
      11 C7        -2.0225    0.3187    1.8743 C.ar      1 YZ9900      0.3521 
      12 C12       -3.7881    0.0794    3.7171 C.2       1 YZ9900      0.3476 
      13 O4         3.2987   -2.5091    1.4069 O.3       1 YZ9900     -0.2865 
      14 O5        -2.7202    1.1356    1.2961 O.2       1 YZ9900     -0.2442 
      15 C10        1.6951   -2.8094    3.1995 C.ar      1 YZ9900      0.0422 
      16 C9        -2.4774   -0.2958    3.1414 C.ar      1 YZ9900      0.1515 
      17 C8         2.0999   -2.2123    1.9998 C.ar      1 YZ9900      0.1988 
      18 H31       -6.7192    1.9242    1.8235 H         1 YZ9900      0.0000 
      19 H32       -7.4936    2.6054    3.2707 H         1 YZ9900      0.0000 
      20 H33       -5.9246    3.2347    2.7231 H         1 YZ9900      0.0000 
      21 H112      -6.4371    0.4163    3.7580 H         1 YZ9900      0.0000 
      22 H113      -5.6603    1.7271    4.6725 H         1 YZ9900      0.0000 
      23 H6         0.1600   -2.9443    4.6970 H         1 YZ9900      0.0000 
      24 H5        -1.9836   -1.6570    4.6729 H         1 YZ9900      0.0000 
      25 H4         1.5588   -0.8154    0.4575 H         1 YZ9900      0.0000 
      26 HO4        3.4068   -2.0183    0.5771 H         1 YZ9900      0.0000 
      27 H10        2.3248   -3.5310    3.6987 H         1 YZ9900      0.0000 
@<TRIPOS>BOND
       1       13       17 1        
       2        7       17 ar       
       3        7       10 ar       
       4        8       10 ar       
       5        8       11 ar       
       6       14       11 2        
       7       17       15 ar       
       8       10        9 ar       
       9       11       16 ar       
      10        2        4 1        
      11        2        1 1        
      12       15        5 ar       
      13        9        5 ar       
      14        9        6 ar       
      15       16        6 ar       
      16       16       12 1        
      17        4       12 1        
      18       12        3 2        
      19       18        1 1        
      20       19        1 1        
      21       20        1 1        
      22       21        2 1        
      23       22        2 1        
      24       23        5 1        
      25       24        6 1        
      26       25        7 1        
      27       26       13 1        
      28       27       15 1        
@<TRIPOS>SUBSTRUCTURE
 1 YZ9900 10 RESIDUE 4 A YZ9900 0 ROOT

