#        scan_R01_S0019_C0000_L00001_S0001_C0000_G0010_E0001.mol2
#        Mon Jun 19 14:13:03 2017
#        Descriptor:     13    20     5     3     3     3
#        Energy - RMSD - RMSD MassCentre:     -28.5867    999.9999    999.9999
#        Receptor:       1  Surface Point:    19  Conformer:     0
#        Ligand:         1  Surface Point:     1  Conformer:     0
#        BUDE Formal Charge: 0
#        ATOM Count: 27
#        Heavy ATOM Count: 17
@<TRIPOS>MOLECULE
pdb1gcz_ligA.pdb_scan_R01_S0019_C0000_L00001_S0001_C0000_G0010_E0001
27 28 1 0 0
SMALL
GASTEIGER
@<TRIPOS>ATOM
       1 C3        -2.9851   -1.2756    3.2308 C.3       1 YZ9900      0.0513 
       2 C11       -2.5042    0.0558    2.7288 C.3       1 YZ9900      0.2089 
       3 O1         0.5756   -0.4798    4.1194 O.2       1 YZ9900     -0.2447 
       4 O2        -1.3661    0.5164    3.5614 O.3       1 YZ9900     -0.4453 
       5 C6         3.3396   -0.1248   -0.3284 C.ar      1 YZ9900      0.0063 
       6 C5         1.7399    0.0526    1.6131 C.ar      1 YZ9900      0.0160 
       7 C4         2.3861    2.4760   -1.3067 C.ar      1 YZ9900      0.0796 
       8 O3         0.9002    2.5426    0.5845 O.2       1 YZ9900     -0.4208 
       9 C2         2.3417    0.6050    0.3603 C.ar      1 YZ9900      0.0353 
      10 C1         1.8913    1.8688   -0.1309 C.ar      1 YZ9900      0.1519 
      11 C7         0.3069    2.0457    1.6460 C.ar      1 YZ9900      0.3521 
      12 C12       -0.0468    0.2120    3.3723 C.2       1 YZ9900      0.3476 
      13 O4         3.9324    2.1724   -3.1009 O.3       1 YZ9900     -0.2865 
      14 O5        -0.5456    2.6626    2.1473 O.2       1 YZ9900     -0.2442 
      15 C10        3.8705    0.4432   -1.5229 C.ar      1 YZ9900      0.0422 
      16 C9         0.7063    0.7406    2.1886 C.ar      1 YZ9900      0.1515 
      17 C8         3.3906    1.6963   -1.9666 C.ar      1 YZ9900      0.1988 
      18 H31       -2.1670   -1.9951    3.1948 H         1 YZ9900      0.0000 
      19 H32       -3.3326   -1.1721    4.2587 H         1 YZ9900      0.0000 
      20 H33       -3.8049   -1.6257    2.6036 H         1 YZ9900      0.0000 
      21 H112      -3.3155    0.7814    2.7892 H         1 YZ9900      0.0000 
      22 H113      -2.1803   -0.0418    1.6926 H         1 YZ9900      0.0000 
      23 H6         3.6869   -1.0793    0.0384 H         1 YZ9900      0.0000 
      24 H5         2.1101   -0.8626    2.0508 H         1 YZ9900      0.0000 
      25 H4         2.0415    3.4323   -1.6714 H         1 YZ9900      0.0000 
      26 HO4        3.6211    1.6544   -3.8467 H         1 YZ9900      0.0000 
      27 H10        4.6320   -0.0788   -2.0834 H         1 YZ9900      0.0000 
@<TRIPOS>BOND
       1       13       17 1        
       2        7       17 ar       
       3        7       10 ar       
       4        8       10 ar       
       5        8       11 ar       
       6       14       11 2        
       7       17       15 ar       
       8       10        9 ar       
       9       11       16 ar       
      10        2        4 1        
      11        2        1 1        
      12       15        5 ar       
      13        9        5 ar       
      14        9        6 ar       
      15       16        6 ar       
      16       16       12 1        
      17        4       12 1        
      18       12        3 2        
      19       18        1 1        
      20       19        1 1        
      21       20        1 1        
      22       21        2 1        
      23       22        2 1        
      24       23        5 1        
      25       24        6 1        
      26       25        7 1        
      27       26       13 1        
      28       27       15 1        
@<TRIPOS>SUBSTRUCTURE
 1 YZ9900 10 RESIDUE 4 A YZ9900 0 ROOT

