#        scan_R01_S0019_C0000_L00001_S0001_C0002_G0010_E0001.mol2
#        Mon Jun 19 14:41:25 2017
#        Descriptor:     25    17     7     3     1     3
#        Energy - RMSD - RMSD MassCentre:     -25.7600    999.9999    999.9999
#        Receptor:       1  Surface Point:    19  Conformer:     0
#        Ligand:         1  Surface Point:     1  Conformer:     2
#        BUDE Formal Charge: 0
#        ATOM Count: 27
#        Heavy ATOM Count: 17
@<TRIPOS>MOLECULE
pdb1gcz_ligA.pdb_scan_R01_S0019_C0000_L00001_S0001_C0002_G0010_E0001
27 28 1 0 0
SMALL
GASTEIGER
@<TRIPOS>ATOM
       1 C3         2.7335    6.1296    0.1005 C.3       1 YZ9900      0.0513 
       2 C11        1.4612    5.4622    0.6146 C.3       1 YZ9900      0.2089 
       3 O1        -0.4125    3.7918    1.3963 O.2       1 YZ9900     -0.2447 
       4 O2         1.6298    4.0422    0.6009 O.3       1 YZ9900     -0.4453 
       5 C6        -1.1672   -1.2774    1.8701 C.ar      1 YZ9900      0.0063 
       6 C5        -0.2780    1.0238    1.4445 C.ar      1 YZ9900      0.0160 
       7 C4         1.2218   -2.4093    0.9910 C.ar      1 YZ9900      0.0796 
       8 O3         2.1292   -0.2179    0.5624 O.2       1 YZ9900     -0.4208 
       9 C2        -0.1261   -0.4484    1.4393 C.ar      1 YZ9900      0.0353 
      10 C1         1.0744   -1.0171    0.9975 C.ar      1 YZ9900      0.1519 
      11 C7         1.9814    1.1672    0.5693 C.ar      1 YZ9900      0.3521 
      12 C12        0.6006    3.2782    1.0248 C.2       1 YZ9900      0.3476 
      13 O4         0.3745   -4.6003    1.3964 O.3       1 YZ9900     -0.2865 
      14 O5         2.9173    1.8486    0.1843 O.2       1 YZ9900     -0.2442 
      15 C10       -1.0145   -2.6691    1.8615 C.ar      1 YZ9900      0.0422 
      16 C9         0.7271    1.8037    1.0293 C.ar      1 YZ9900      0.1515 
      17 C8         0.1835   -3.2439    1.4210 C.ar      1 YZ9900      0.1988 
      18 H31        2.9240    5.8071   -0.9211 H         1 YZ9900      0.0000 
      19 H32        2.6100    7.2102    0.1234 H         1 YZ9900      0.0000 
      20 H33        3.5720    5.8462    0.7332 H         1 YZ9900      0.0000 
      21 H112       0.6243    5.7335   -0.0257 H         1 YZ9900      0.0000 
      22 H113       1.2626    5.7934    1.6317 H         1 YZ9900      0.0000 
      23 H6        -2.0962   -0.8458    2.2122 H         1 YZ9900      0.0000 
      24 H5        -1.2080    1.4527    1.7872 H         1 YZ9900      0.0000 
      25 H4         2.1499   -2.8434    0.6493 H         1 YZ9900      0.0000 
      26 HO4        1.2522   -4.8212    1.0473 H         1 YZ9900      0.0000 
      27 H10       -1.8336   -3.2867    2.1992 H         1 YZ9900      0.0000 
@<TRIPOS>BOND
       1       13       17 1        
       2        7       17 ar       
       3        7       10 ar       
       4        8       10 ar       
       5        8       11 ar       
       6       14       11 2        
       7       17       15 ar       
       8       10        9 ar       
       9       11       16 ar       
      10        2        4 1        
      11        2        1 1        
      12       15        5 ar       
      13        9        5 ar       
      14        9        6 ar       
      15       16        6 ar       
      16       16       12 1        
      17        4       12 1        
      18       12        3 2        
      19       18        1 1        
      20       19        1 1        
      21       20        1 1        
      22       21        2 1        
      23       22        2 1        
      24       23        5 1        
      25       24        6 1        
      26       25        7 1        
      27       26       13 1        
      28       27       15 1        
@<TRIPOS>SUBSTRUCTURE
 1 YZ9900 10 RESIDUE 4 A YZ9900 0 ROOT

