#        scan_R01_S0019_C0000_L00001_S0001_C0003_G0010_E0001.mol2
#        Mon Jun 19 14:41:26 2017
#        Descriptor:     29    17    29     3     3     3
#        Energy - RMSD - RMSD MassCentre:     -28.7458    999.9999    999.9999
#        Receptor:       1  Surface Point:    19  Conformer:     0
#        Ligand:         1  Surface Point:     1  Conformer:     3
#        BUDE Formal Charge: 0
#        ATOM Count: 27
#        Heavy ATOM Count: 17
@<TRIPOS>MOLECULE
pdb1gcz_ligA.pdb_scan_R01_S0019_C0000_L00001_S0001_C0003_G0010_E0001
27 28 1 0 0
SMALL
GASTEIGER
@<TRIPOS>ATOM
       1 C3         5.0424   -3.7706   -2.1499 C.3       1 YZ9900      0.0513 
       2 C11        4.7565   -4.0214   -0.6720 C.3       1 YZ9900      0.2089 
       3 O1         5.0390   -1.4082   -0.7321 O.2       1 YZ9900     -0.2447 
       4 O2         3.7420   -3.1187   -0.2238 O.3       1 YZ9900     -0.4453 
       5 C6         2.3839    2.8301    0.4836 C.ar      1 YZ9900      0.0063 
       6 C5         3.1998    0.4968    0.0867 C.ar      1 YZ9900      0.0160 
       7 C4        -0.0308    1.8616    1.4801 C.ar      1 YZ9900      0.0796 
       8 O3         0.7030   -0.4057    1.1192 O.2       1 YZ9900     -0.4208 
       9 C2         2.1644    1.4499    0.5450 C.ar      1 YZ9900      0.0353 
      10 C1         0.9511    0.9631    1.0456 C.ar      1 YZ9900      0.1519 
      11 C7         1.6807   -1.2987    0.6867 C.ar      1 YZ9900      0.3521 
      12 C12        3.9939   -1.7945   -0.3001 C.2       1 YZ9900      0.3476 
      13 O4        -0.8072    4.0836    1.8578 O.3       1 YZ9900     -0.2865 
      14 O5         1.4433   -2.4931    0.7598 O.2       1 YZ9900     -0.2442 
      15 C10        1.3985    3.7241    0.9194 C.ar      1 YZ9900      0.0422 
      16 C9         2.9751   -0.8208    0.1516 C.ar      1 YZ9900      0.1515 
      17 C8         0.1831    3.2438    1.4211 C.ar      1 YZ9900      0.1988 
      18 H31        5.3955   -2.7499   -2.2821 H         1 YZ9900      0.0000 
      19 H32        5.8047   -4.4663   -2.4943 H         1 YZ9900      0.0000 
      20 H33        4.1305   -3.9170   -2.7249 H         1 YZ9900      0.0000 
      21 H112       5.6643   -3.8615   -0.0942 H         1 YZ9900      0.0000 
      22 H113       4.4152   -5.0455   -0.5368 H         1 YZ9900      0.0000 
      23 H6         3.3174    3.2128    0.0986 H         1 YZ9900      0.0000 
      24 H5         4.1325    0.8823   -0.2979 H         1 YZ9900      0.0000 
      25 H4        -0.9653    1.4813    1.8656 H         1 YZ9900      0.0000 
      26 HO4       -1.5827    3.5817    2.1541 H         1 YZ9900      0.0000 
      27 H10        1.5930    4.7849    0.8614 H         1 YZ9900      0.0000 
@<TRIPOS>BOND
       1       13       17 1        
       2        7       17 ar       
       3        7       10 ar       
       4        8       10 ar       
       5        8       11 ar       
       6       14       11 2        
       7       17       15 ar       
       8       10        9 ar       
       9       11       16 ar       
      10        2        4 1        
      11        2        1 1        
      12       15        5 ar       
      13        9        5 ar       
      14        9        6 ar       
      15       16        6 ar       
      16       16       12 1        
      17        4       12 1        
      18       12        3 2        
      19       18        1 1        
      20       19        1 1        
      21       20        1 1        
      22       21        2 1        
      23       22        2 1        
      24       23        5 1        
      25       24        6 1        
      26       25        7 1        
      27       26       13 1        
      28       27       15 1        
@<TRIPOS>SUBSTRUCTURE
 1 YZ9900 10 RESIDUE 4 A YZ9900 0 ROOT

