#        1GCZ_R01_S0001_C0000_L00004_S0001_C0005_G0010_E0001.mol2
#        Tue Jun  6 09:55:23 2017
#        Descriptor:     16    25    27     8     6    15
#        Energy - RMSD - RMSD MassCentre:     -55.9355    999.9999    999.9999
#        Receptor:       1  Surface Point:     1  Conformer:     0
#        Ligand:         4  Surface Point:     1  Conformer:     5
#        BUDE Formal Charge: 0
#        ATOM Count: 46
#        Heavy ATOM Count: 28
@<TRIPOS>MOLECULE
ZINC61563277_1GCZ_R01_S0001_C0000_L00004_S0001_C0005_G0010_E0001
 46 49 0 0 0
SMALL
USER_CHARGES
@<TRIPOS>ATOM
       1 C1        -2.3029   -5.0115   10.3084 C.3       1 <0>        -0.1051 
       2 C2        -2.3803   -3.7452    9.4898 C.2       1 <0>         0.1324 
       3 C3        -2.8094   -2.5526    9.9251 C.2       1 <0>        -0.1714 
       4 C4        -2.7256   -1.5914    8.7723 C.ar      1 <0>        -0.0773 
       5 C5        -3.0475   -0.2417    8.5870 C.ar      1 <0>        -0.0675 
       6 C6        -2.7595    0.2999    7.3284 C.ar      1 <0>        -0.1361 
       7 C7        -2.1400   -0.4733    6.3378 C.ar      1 <0>        -0.0920 
       8 C8        -1.8161   -1.8193    6.5464 C.ar      1 <0>        -0.1265 
       9 C9        -2.1694   -2.3974    7.7716 C.ar      1 <0>         0.1084 
      10 N1        -2.0403   -3.6645    8.2196 N.pl3     1 <0>        -0.4675 
      11 C10       -1.5515   -4.7930    7.3984 C.3       1 <0>         0.1242 
      12 C11       -0.0477   -4.7194    7.2843 C.2       1 <0>         0.4463 
      13 O1         0.4605   -4.4946    6.2264 O.2       1 <0>        -0.4704 
      14 O2         0.7218   -4.9076    8.3775 O.3       1 <0>        -0.3437 
      15 C12        2.1409   -4.8285    8.2205 C.3       1 <0>         0.1567 
      16 C13        2.5207   -3.4353    7.7791 C.2       1 <0>         0.2874 
      17 N2         3.0636   -2.9192    6.6923 N.2       1 <0>        -0.5106 
      18 C14        3.1808   -1.5310    6.8315 C.2       1 <0>         0.2609 
      19 N3         2.7318   -1.1947    7.9821 N.2       1 <0>        -0.3200 
      20 O3         2.3052   -2.3574    8.6348 O.3       1 <0>        -0.0928 
      21 C15        3.7279   -0.5791    5.7950 C.3       1 <0>         0.0037 
      22 C16        2.5943   -0.0550    4.9460 C.ar      1 <0>        -0.0973 
      23 C17        2.2156   -0.7231    3.7756 C.ar      1 <0>        -0.0995 
      24 C18        1.1507   -0.2517    2.9984 C.ar      1 <0>        -0.1207 
      25 C19        0.4675    0.9072    3.3733 C.ar      1 <0>        -0.1122 
      26 C20        0.8478    1.5868    4.5367 C.ar      1 <0>        -0.1201 
      27 C21        1.9120    1.1112    5.3123 C.ar      1 <0>        -0.1046 
      28 Br1       -3.4013   -2.1049   11.6523 Br        1 <0>        -0.0155 
      29 H1        -1.2722   -5.3581   10.3424 H         1 <0>         0.0903 
      30 H2        -2.9284   -5.7761    9.8525 H         1 <0>         0.0953 
      31 H3        -2.6523   -4.8112   11.3191 H         1 <0>         0.0712 
      32 H4        -3.4925    0.3724    9.3561 H         1 <0>         0.1274 
      33 H5        -3.0077    1.3348    7.1445 H         1 <0>         0.1276 
      34 H6        -1.8961   -0.0269    5.3852 H         1 <0>         0.1296 
      35 H7        -1.3005   -2.3507    5.7603 H         1 <0>         0.1206 
      36 H8        -1.9931   -4.7362    6.4057 H         1 <0>         0.1394 
      37 H9        -1.8347   -5.7331    7.8673 H         1 <0>         0.1404 
      38 H10        2.4628   -5.5477    7.4703 H         1 <0>         0.1240 
      39 H11        2.6231   -5.0530    9.1696 H         1 <0>         0.1139 
      40 H12        4.4425   -1.1031    5.1636 H         1 <0>         0.1085 
      41 H13        4.2235    0.2520    6.2924 H         1 <0>         0.1144 
      42 H14        2.7452   -1.6087    3.4570 H         1 <0>         0.1277 
      43 H15        0.8660   -0.7790    2.1000 H         1 <0>         0.1259 
      44 H16       -0.3562    1.2753    2.7797 H         1 <0>         0.1247 
      45 H17        0.3189    2.4802    4.8342 H         1 <0>         0.1255 
      46 H18        2.2033    1.6574    6.1973 H         1 <0>         0.1245 
@<TRIPOS>BOND
       1        1        2 1        
       2        1       29 1        
       3        1       30 1        
       4        1       31 1        
       5        2       10 1        
       6        2        3 2        
       7        3        4 1        
       8        3       28 1        
       9        4        9 ar       
      10        4        5 ar       
      11        5        6 ar       
      12        5       32 1        
      13        6        7 ar       
      14        6       33 1        
      15        7        8 ar       
      16        7       34 1        
      17        8        9 ar       
      18        8       35 1        
      19        9       10 1        
      20       10       11 1        
      21       11       12 1        
      22       11       36 1        
      23       11       37 1        
      24       12       13 2        
      25       12       14 1        
      26       14       15 1        
      27       15       16 1        
      28       15       38 1        
      29       15       39 1        
      30       16       20 1        
      31       16       17 2        
      32       17       18 1        
      33       18       19 2        
      34       18       21 1        
      35       19       20 1        
      36       21       22 1        
      37       21       40 1        
      38       21       41 1        
      39       22       27 ar       
      40       22       23 ar       
      41       23       24 ar       
      42       23       42 1        
      43       24       25 ar       
      44       24       43 1        
      45       25       26 ar       
      46       25       44 1        
      47       26       27 ar       
      48       26       45 1        
      49       27       46 1        

