#        scan_R01_S0019_C0000_L00001_S0001_C0003_G0010_E0001.mol2
#        Mon Jun 19 14:13:04 2017
#        Descriptor:     23     5    26     3     2     5
#        Energy - RMSD - RMSD MassCentre:     -26.0714    999.9999    999.9999
#        Receptor:       1  Surface Point:    19  Conformer:     0
#        Ligand:         1  Surface Point:     1  Conformer:     3
#        BUDE Formal Charge: 0
#        ATOM Count: 27
#        Heavy ATOM Count: 17
@<TRIPOS>MOLECULE
pdb1gcz_ligA.pdb_scan_R01_S0019_C0000_L00001_S0001_C0003_G0010_E0001
27 28 1 0 0
SMALL
GASTEIGER
@<TRIPOS>ATOM
       1 C3         4.4387    2.8715   -2.3806 C.3       1 YZ9900      0.0513 
       2 C11        2.9315    2.7218   -2.5662 C.3       1 YZ9900      0.2089 
       3 O1         3.5415    0.5061   -1.2892 O.2       1 YZ9900     -0.2447 
       4 O2         2.3333    2.3514   -1.3213 O.3       1 YZ9900     -0.4453 
       5 C6         2.2661   -1.9816    3.0323 C.ar      1 YZ9900      0.0063 
       6 C5         2.4985   -0.3827    1.1200 C.ar      1 YZ9900      0.0160 
       7 C4         0.3596   -0.3399    4.2287 C.ar      1 YZ9900      0.0796 
       8 O3         0.5425    1.2348    2.4132 O.2       1 YZ9900     -0.4208 
       9 C2         1.8928   -0.7864    2.4086 C.ar      1 YZ9900      0.0353 
      10 C1         0.9348    0.0386    3.0098 C.ar      1 YZ9900      0.1519 
      11 C7         1.1155    1.6104    1.2003 C.ar      1 YZ9900      0.3521 
      12 C12        2.7215    1.1901   -0.7528 C.2       1 YZ9900      0.3476 
      13 O4         0.1388   -1.8628    6.0494 O.3       1 YZ9900     -0.2865 
      14 O5         0.7579    2.6616    0.6949 O.2       1 YZ9900     -0.2442 
      15 C10        1.6877   -2.3553    4.2512 C.ar      1 YZ9900      0.0422 
      16 C9         2.1311    0.7637    0.5355 C.ar      1 YZ9900      0.1515 
      17 C8         0.7292   -1.5348    4.8575 C.ar      1 YZ9900      0.1988 
      18 H31        4.8596    1.9220   -2.0562 H         1 YZ9900      0.0000 
      19 H32        4.8922    3.1663   -3.3246 H         1 YZ9900      0.0000 
      20 H33        4.6371    3.6326   -1.6290 H         1 YZ9900      0.0000 
      21 H112       2.7315    1.9509   -3.3074 H         1 YZ9900      0.0000 
      22 H113       2.5112    3.6672   -2.9027 H         1 YZ9900      0.0000 
      23 H6         3.0045   -2.6231    2.5744 H         1 YZ9900      0.0000 
      24 H5         3.2366   -1.0261    0.6643 H         1 YZ9900      0.0000 
      25 H4        -0.3791    0.2999    4.6887 H         1 YZ9900      0.0000 
      26 HO4       -0.4852   -1.1747    6.3290 H         1 YZ9900      0.0000 
      27 H10        1.9934   -3.2831    4.7120 H         1 YZ9900      0.0000 
@<TRIPOS>BOND
       1       13       17 1        
       2        7       17 ar       
       3        7       10 ar       
       4        8       10 ar       
       5        8       11 ar       
       6       14       11 2        
       7       17       15 ar       
       8       10        9 ar       
       9       11       16 ar       
      10        2        4 1        
      11        2        1 1        
      12       15        5 ar       
      13        9        5 ar       
      14        9        6 ar       
      15       16        6 ar       
      16       16       12 1        
      17        4       12 1        
      18       12        3 2        
      19       18        1 1        
      20       19        1 1        
      21       20        1 1        
      22       21        2 1        
      23       22        2 1        
      24       23        5 1        
      25       24        6 1        
      26       25        7 1        
      27       26       13 1        
      28       27       15 1        
@<TRIPOS>SUBSTRUCTURE
 1 YZ9900 10 RESIDUE 4 A YZ9900 0 ROOT

