#        scan_R01_S0020_C0000_L00001_S0001_C0000_G0010_E0001.mol2
#        Mon Jun 19 14:13:05 2017
#        Descriptor:     10    33    20     2     2     7
#        Energy - RMSD - RMSD MassCentre:     -64.3337    999.9999    999.9999
#        Receptor:       1  Surface Point:    20  Conformer:     0
#        Ligand:         1  Surface Point:     1  Conformer:     0
#        BUDE Formal Charge: 0
#        ATOM Count: 27
#        Heavy ATOM Count: 17
@<TRIPOS>MOLECULE
pdb1gcz_ligA.pdb_scan_R01_S0020_C0000_L00001_S0001_C0000_G0010_E0001
27 28 1 0 0
SMALL
GASTEIGER
@<TRIPOS>ATOM
       1 C3        -0.9848    0.0750   -0.0060 C.3       1 YZ9900      0.0513 
       2 C11       -0.0677   -0.5333    1.0162 C.3       1 YZ9900      0.2089 
       3 O1         0.2651    2.4892    2.5846 O.2       1 YZ9900     -0.2447 
       4 O2         0.7845    0.5265    1.6088 O.3       1 YZ9900     -0.4453 
       5 C6        -1.5608    0.9689    7.2647 C.ar      1 YZ9900      0.0063 
       6 C5        -0.4891    1.2577    5.0002 C.ar      1 YZ9900      0.0160 
       7 C4         0.1695   -1.3553    7.7486 C.ar      1 YZ9900      0.0796 
       8 O3         1.1239   -0.9863    5.5710 O.2       1 YZ9900     -0.4208 
       9 C2        -0.6176    0.5347    6.3031 C.ar      1 YZ9900      0.0353 
      10 C1         0.2157   -0.5977    6.5571 C.ar      1 YZ9900      0.1519 
      11 C7         1.2052   -0.4118    4.3925 C.ar      1 YZ9900      0.3521 
      12 C12        0.4698    1.3172    2.6786 C.2       1 YZ9900      0.3476 
      13 O4        -0.9396   -1.5231    9.8567 O.3       1 YZ9900     -0.2865 
      14 O5         1.9617   -0.8395    3.6156 O.2       1 YZ9900     -0.2442 
      15 C10       -1.6490    0.2366    8.4842 C.ar      1 YZ9900      0.0422 
      16 C9         0.3602    0.7422    4.0589 C.ar      1 YZ9900      0.1515 
      17 C8        -0.8022   -0.8768    8.6862 C.ar      1 YZ9900      0.1988 
      18 H31       -1.5986    0.8420    0.4665 H         1 YZ9900      0.0000 
      19 H32       -0.3926    0.5241   -0.8034 H         1 YZ9900      0.0000 
      20 H33       -1.6282   -0.6995   -0.4233 H         1 YZ9900      0.0000 
      21 H112       0.5637   -1.2821    0.5379 H         1 YZ9900      0.0000 
      22 H113      -0.6597   -1.0047    1.8008 H         1 YZ9900      0.0000 
      23 H6        -2.1920    1.8256    7.0808 H         1 YZ9900      0.0000 
      24 H5        -1.0501    2.1601    4.8077 H         1 YZ9900      0.0000 
      25 H4         0.8034   -2.2098    7.9341 H         1 YZ9900      0.0000 
      26 HO4       -1.7710   -2.0030    9.8622 H         1 YZ9900      0.0000 
      27 H10       -2.3560    0.5295    9.2464 H         1 YZ9900      0.0000 
@<TRIPOS>BOND
       1       13       17 1        
       2        7       17 ar       
       3        7       10 ar       
       4        8       10 ar       
       5        8       11 ar       
       6       14       11 2        
       7       17       15 ar       
       8       10        9 ar       
       9       11       16 ar       
      10        2        4 1        
      11        2        1 1        
      12       15        5 ar       
      13        9        5 ar       
      14        9        6 ar       
      15       16        6 ar       
      16       16       12 1        
      17        4       12 1        
      18       12        3 2        
      19       18        1 1        
      20       19        1 1        
      21       20        1 1        
      22       21        2 1        
      23       22        2 1        
      24       23        5 1        
      25       24        6 1        
      26       25        7 1        
      27       26       13 1        
      28       27       15 1        
@<TRIPOS>SUBSTRUCTURE
 1 YZ9900 10 RESIDUE 4 A YZ9900 0 ROOT

