#        scan_R01_S0020_C0000_L00001_S0001_C0002_G0010_E0001.mol2
#        Mon Jun 19 14:41:27 2017
#        Descriptor:     19    25    15     1     2     6
#        Energy - RMSD - RMSD MassCentre:     -71.0158    999.9999    999.9999
#        Receptor:       1  Surface Point:    20  Conformer:     0
#        Ligand:         1  Surface Point:     1  Conformer:     2
#        BUDE Formal Charge: 0
#        ATOM Count: 27
#        Heavy ATOM Count: 17
@<TRIPOS>MOLECULE
pdb1gcz_ligA.pdb_scan_R01_S0020_C0000_L00001_S0001_C0002_G0010_E0001
27 28 1 0 0
SMALL
GASTEIGER
@<TRIPOS>ATOM
       1 C3        -2.4858    0.7710   11.2002 C.3       1 YZ9900      0.0513 
       2 C11       -1.4393   -0.0700   10.4748 C.3       1 YZ9900      0.2089 
       3 O1         0.1109   -1.2655    8.7199 O.2       1 YZ9900     -0.2447 
       4 O2        -1.5580    0.1353    9.0646 O.3       1 YZ9900     -0.4453 
       5 C6         0.7936   -1.4737    3.6227 C.ar      1 YZ9900      0.0063 
       6 C5         0.0378   -1.0000    5.9619 C.ar      1 YZ9900      0.0160 
       7 C4        -1.1398    0.2537    2.6030 C.ar      1 YZ9900      0.0796 
       8 O3        -1.9089    0.7467    4.8334 O.2       1 YZ9900     -0.4208 
       9 C2        -0.0665   -0.8031    4.4988 C.ar      1 YZ9900      0.0353 
      10 C1        -1.0381    0.0649    3.9865 C.ar      1 YZ9900      0.1519 
      11 C7        -1.8067    0.5580    6.2098 C.ar      1 YZ9900      0.3521 
      12 C12       -0.7085   -0.5310    8.2540 C.2       1 YZ9900      0.3476 
      13 O4        -0.4198   -0.1977    0.3758 O.3       1 YZ9900     -0.2865 
      14 O5        -2.5790    1.1647    6.9337 O.2       1 YZ9900     -0.2442 
      15 C10        0.6874   -1.2811    2.2401 C.ar      1 YZ9900      0.0422 
      16 C9        -0.7922   -0.3516    6.7874 C.ar      1 YZ9900      0.1515 
      17 C8        -0.2820   -0.4145    1.7215 C.ar      1 YZ9900      0.1988 
      18 H31       -3.4802    0.4647   10.8820 H         1 YZ9900      0.0000 
      19 H32       -2.3867    0.6249   12.2738 H         1 YZ9900      0.0000 
      20 H33       -2.3352    1.8216   10.9610 H         1 YZ9900      0.0000 
      21 H112      -1.5974   -1.1222   10.7020 H         1 YZ9900      0.0000 
      22 H113      -0.4448    0.2266   10.8014 H         1 YZ9900      0.0000 
      23 H6         1.5455   -2.1448    4.0107 H         1 YZ9900      0.0000 
      24 H5         0.7907   -1.6718    6.3472 H         1 YZ9900      0.0000 
      25 H4        -1.8910    0.9244    2.2125 H         1 YZ9900      0.0000 
      26 HO4       -1.1494    0.4157    0.1957 H         1 YZ9900      0.0000 
      27 H10        1.3636   -1.8108    1.5853 H         1 YZ9900      0.0000 
@<TRIPOS>BOND
       1       13       17 1        
       2        7       17 ar       
       3        7       10 ar       
       4        8       10 ar       
       5        8       11 ar       
       6       14       11 2        
       7       17       15 ar       
       8       10        9 ar       
       9       11       16 ar       
      10        2        4 1        
      11        2        1 1        
      12       15        5 ar       
      13        9        5 ar       
      14        9        6 ar       
      15       16        6 ar       
      16       16       12 1        
      17        4       12 1        
      18       12        3 2        
      19       18        1 1        
      20       19        1 1        
      21       20        1 1        
      22       21        2 1        
      23       22        2 1        
      24       23        5 1        
      25       24        6 1        
      26       25        7 1        
      27       26       13 1        
      28       27       15 1        
@<TRIPOS>SUBSTRUCTURE
 1 YZ9900 10 RESIDUE 4 A YZ9900 0 ROOT

