#        scan_R01_S0020_C0000_L00001_S0001_C0002_G0010_E0001.mol2
#        Mon Jun 19 14:13:06 2017
#        Descriptor:      3    28    33     1     2     7
#        Energy - RMSD - RMSD MassCentre:     -64.5788    999.9999    999.9999
#        Receptor:       1  Surface Point:    20  Conformer:     0
#        Ligand:         1  Surface Point:     1  Conformer:     2
#        BUDE Formal Charge: 0
#        ATOM Count: 27
#        Heavy ATOM Count: 17
@<TRIPOS>MOLECULE
pdb1gcz_ligA.pdb_scan_R01_S0020_C0000_L00001_S0001_C0002_G0010_E0001
27 28 1 0 0
SMALL
GASTEIGER
@<TRIPOS>ATOM
       1 C3        -1.5989   -0.0878   12.3674 C.3       1 YZ9900      0.0513 
       2 C11       -0.9547   -1.0766   11.4000 C.3       1 YZ9900      0.2089 
       3 O1        -0.0342   -2.3736    9.3066 O.2       1 YZ9900     -0.2447 
       4 O2        -1.1016   -0.5966   10.0610 O.3       1 YZ9900     -0.4453 
       5 C6         0.1575   -1.8789    4.1870 C.ar      1 YZ9900      0.0063 
       6 C5        -0.2180   -1.6123    6.6478 C.ar      1 YZ9900      0.0160 
       7 C4        -1.1494    0.5295    3.6837 C.ar      1 YZ9900      0.0796 
       8 O3        -1.5389    0.8378    6.0422 O.2       1 YZ9900     -0.4208 
       9 C2        -0.3581   -1.1352    5.2539 C.ar      1 YZ9900      0.0353 
      10 C1        -1.0148    0.0749    5.0010 C.ar      1 YZ9900      0.1519 
      11 C7        -1.4044    0.3845    7.3524 C.ar      1 YZ9900      0.3521 
      12 C12       -0.5897   -1.3446    9.0604 C.2       1 YZ9900      0.3476 
      13 O4        -0.7916    0.2751    1.3406 O.3       1 YZ9900     -0.2865 
      14 O5        -1.8705    1.0677    8.2494 O.2       1 YZ9900     -0.2442 
      15 C10        0.0201   -1.4197    2.8716 C.ar      1 YZ9900      0.0422 
      16 C9        -0.7166   -0.8898    7.6579 C.ar      1 YZ9900      0.1515 
      17 C8        -0.6355   -0.2104    2.6121 C.ar      1 YZ9900      0.1988 
      18 H31       -2.6591    0.0028   12.1398 H         1 YZ9900      0.0000 
      19 H32       -1.4755   -0.4465   13.3871 H         1 YZ9900      0.0000 
      20 H33       -1.1207    0.8839   12.2637 H         1 YZ9900      0.0000 
      21 H112      -1.4415   -2.0453   11.4927 H         1 YZ9900      0.0000 
      22 H113       0.1029   -1.1776   11.6344 H         1 YZ9900      0.0000 
      23 H6         0.6653   -2.8134    4.3745 H         1 YZ9900      0.0000 
      24 H5         0.2903   -2.5472    6.8324 H         1 YZ9900      0.0000 
      25 H4        -1.6568    1.4638    3.4936 H         1 YZ9900      0.0000 
      26 HO4       -1.2825    1.1117    1.3460 H         1 YZ9900      0.0000 
      27 H10        0.4271   -2.0127    2.0660 H         1 YZ9900      0.0000 
@<TRIPOS>BOND
       1       13       17 1        
       2        7       17 ar       
       3        7       10 ar       
       4        8       10 ar       
       5        8       11 ar       
       6       14       11 2        
       7       17       15 ar       
       8       10        9 ar       
       9       11       16 ar       
      10        2        4 1        
      11        2        1 1        
      12       15        5 ar       
      13        9        5 ar       
      14        9        6 ar       
      15       16        6 ar       
      16       16       12 1        
      17        4       12 1        
      18       12        3 2        
      19       18        1 1        
      20       19        1 1        
      21       20        1 1        
      22       21        2 1        
      23       22        2 1        
      24       23        5 1        
      25       24        6 1        
      26       25        7 1        
      27       26       13 1        
      28       27       15 1        
@<TRIPOS>SUBSTRUCTURE
 1 YZ9900 10 RESIDUE 4 A YZ9900 0 ROOT

