#        scan_R01_S0020_C0000_L00001_S0001_C0003_G0010_E0001.mol2
#        Mon Jun 19 14:41:27 2017
#        Descriptor:     11    25    26     3     2     6
#        Energy - RMSD - RMSD MassCentre:     -70.0728    999.9999    999.9999
#        Receptor:       1  Surface Point:    20  Conformer:     0
#        Ligand:         1  Surface Point:     1  Conformer:     3
#        BUDE Formal Charge: 0
#        ATOM Count: 27
#        Heavy ATOM Count: 17
@<TRIPOS>MOLECULE
pdb1gcz_ligA.pdb_scan_R01_S0020_C0000_L00001_S0001_C0003_G0010_E0001
27 28 1 0 0
SMALL
GASTEIGER
@<TRIPOS>ATOM
       1 C3        -1.1696    0.1746   10.6546 C.3       1 YZ9900      0.0513 
       2 C11       -1.0548   -1.2153   10.0351 C.3       1 YZ9900      0.2089 
       3 O1        -1.9826    0.1987    8.0222 O.2       1 YZ9900     -0.2447 
       4 O2        -0.3837   -1.1210    8.7759 O.3       1 YZ9900     -0.4453 
       5 C6        -0.7112    1.3886    3.1788 C.ar      1 YZ9900      0.0063 
       6 C5        -0.8353    0.5047    5.5177 C.ar      1 YZ9900      0.0160 
       7 C4         1.6924    0.0458    2.7535 C.ar      1 YZ9900      0.0796 
       8 O3         1.6245   -0.8340    4.9964 O.2       1 YZ9900     -0.4208 
       9 C2        -0.1585    0.6168    4.2063 C.ar      1 YZ9900      0.0353 
      10 C1         1.0493   -0.0579    3.9927 C.ar      1 YZ9900      0.1519 
      11 C7         0.9837   -0.9365    6.2289 C.ar      1 YZ9900      0.3521 
      12 C12       -0.9508   -0.3659    7.8110 C.2       1 YZ9900      0.3476 
      13 O4         1.8101    0.8878    0.5264 O.3       1 YZ9900     -0.2865 
      14 O5         1.5043   -1.6212    7.0941 O.2       1 YZ9900     -0.2442 
      15 C10       -0.0638    1.4889    1.9415 C.ar      1 YZ9900      0.0422 
      16 C9        -0.2941   -0.2374    6.4910 C.ar      1 YZ9900      0.1515 
      17 C8         1.1442    0.8166    1.7215 C.ar      1 YZ9900      0.1988 
      18 H31       -1.7475    0.8184    9.9947 H         1 YZ9900      0.0000 
      19 H32       -1.6683    0.1011   11.6187 H         1 YZ9900      0.0000 
      20 H33       -0.1749    0.5933   10.7911 H         1 YZ9900      0.0000 
      21 H112      -2.0496   -1.6295    9.8849 H         1 YZ9900      0.0000 
      22 H113      -0.4878   -1.8636   10.6998 H         1 YZ9900      0.0000 
      23 H6        -1.6427    1.9120    3.3363 H         1 YZ9900      0.0000 
      24 H5        -1.7667    1.0291    5.6726 H         1 YZ9900      0.0000 
      25 H4         2.6241   -0.4766    2.5934 H         1 YZ9900      0.0000 
      26 HO4        2.6342    0.3771    0.5569 H         1 YZ9900      0.0000 
      27 H10       -0.5115    2.0912    1.1648 H         1 YZ9900      0.0000 
@<TRIPOS>BOND
       1       13       17 1        
       2        7       17 ar       
       3        7       10 ar       
       4        8       10 ar       
       5        8       11 ar       
       6       14       11 2        
       7       17       15 ar       
       8       10        9 ar       
       9       11       16 ar       
      10        2        4 1        
      11        2        1 1        
      12       15        5 ar       
      13        9        5 ar       
      14        9        6 ar       
      15       16        6 ar       
      16       16       12 1        
      17        4       12 1        
      18       12        3 2        
      19       18        1 1        
      20       19        1 1        
      21       20        1 1        
      22       21        2 1        
      23       22        2 1        
      24       23        5 1        
      25       24        6 1        
      26       25        7 1        
      27       26       13 1        
      28       27       15 1        
@<TRIPOS>SUBSTRUCTURE
 1 YZ9900 10 RESIDUE 4 A YZ9900 0 ROOT

