#        scan_R01_S0020_C0000_L00001_S0001_C0003_G0010_E0001.mol2
#        Mon Jun 19 14:13:08 2017
#        Descriptor:     13    24    27     3     2     6
#        Energy - RMSD - RMSD MassCentre:     -65.6297    999.9999    999.9999
#        Receptor:       1  Surface Point:    20  Conformer:     0
#        Ligand:         1  Surface Point:     1  Conformer:     3
#        BUDE Formal Charge: 0
#        ATOM Count: 27
#        Heavy ATOM Count: 17
@<TRIPOS>MOLECULE
pdb1gcz_ligA.pdb_scan_R01_S0020_C0000_L00001_S0001_C0003_G0010_E0001
27 28 1 0 0
SMALL
GASTEIGER
@<TRIPOS>ATOM
       1 C3        -0.3237   -0.8242   10.8256 C.3       1 YZ9900      0.0513 
       2 C11       -0.4966   -2.0727    9.9654 C.3       1 YZ9900      0.2089 
       3 O1        -1.4256   -0.1915    8.3810 O.2       1 YZ9900     -0.2447 
       4 O2         0.0291   -1.8265    8.6585 O.3       1 YZ9900     -0.4453 
       5 C6        -0.5622    1.7294    3.6847 C.ar      1 YZ9900      0.0063 
       6 C5        -0.5459    0.4375    5.8290 C.ar      1 YZ9900      0.0160 
       7 C4         1.5407    0.1938    2.6940 C.ar      1 YZ9900      0.0796 
       8 O3         1.6015   -1.0830    4.7374 O.2       1 YZ9900     -0.4208 
       9 C2        -0.0181    0.7103    4.4735 C.ar      1 YZ9900      0.0353 
      10 C1         1.0386   -0.0613    3.9758 C.ar      1 YZ9900      0.1519 
      11 C7         1.1011   -1.3359    6.0126 C.ar      1 YZ9900      0.3521 
      12 C12       -0.5244   -0.8338    7.9299 C.2       1 YZ9900      0.3476 
      13 O4         1.5247    1.4244    0.6524 O.3       1 YZ9900     -0.2865 
      14 O5         1.6082   -2.2351    6.6628 O.2       1 YZ9900     -0.2442 
      15 C10       -0.0563    1.9803    2.4036 C.ar      1 YZ9900      0.0422 
      16 C9        -0.0149   -0.5408    6.5717 C.ar      1 YZ9900      0.1515 
      17 C8         1.0002    1.2122    1.9001 C.ar      1 YZ9900      0.1988 
      18 H31       -0.8692    0.0032   10.3766 H         1 YZ9900      0.0000 
      19 H32       -0.7115   -1.0160   11.8239 H         1 YZ9900      0.0000 
      20 H33        0.7326   -0.5715   10.8887 H         1 YZ9900      0.0000 
      21 H112      -1.5538   -2.3184    9.8899 H         1 YZ9900      0.0000 
      22 H113       0.0381   -2.9040   10.4199 H         1 YZ9900      0.0000 
      23 H6        -1.3775    2.3288    4.0620 H         1 YZ9900      0.0000 
      24 H5        -1.3613    1.0384    6.2039 H         1 YZ9900      0.0000 
      25 H4         2.3560   -0.4042    2.3144 H         1 YZ9900      0.0000 
      26 HO4        2.2586    0.8151    0.4759 H         1 YZ9900      0.0000 
      27 H10       -0.4942    2.7729    1.8149 H         1 YZ9900      0.0000 
@<TRIPOS>BOND
       1       13       17 1        
       2        7       17 ar       
       3        7       10 ar       
       4        8       10 ar       
       5        8       11 ar       
       6       14       11 2        
       7       17       15 ar       
       8       10        9 ar       
       9       11       16 ar       
      10        2        4 1        
      11        2        1 1        
      12       15        5 ar       
      13        9        5 ar       
      14        9        6 ar       
      15       16        6 ar       
      16       16       12 1        
      17        4       12 1        
      18       12        3 2        
      19       18        1 1        
      20       19        1 1        
      21       20        1 1        
      22       21        2 1        
      23       22        2 1        
      24       23        5 1        
      25       24        6 1        
      26       25        7 1        
      27       26       13 1        
      28       27       15 1        
@<TRIPOS>SUBSTRUCTURE
 1 YZ9900 10 RESIDUE 4 A YZ9900 0 ROOT

