#        scan_R01_S0021_C0000_L00001_S0001_C0000_G0010_E0001.mol2
#        Mon Jun 19 14:41:28 2017
#        Descriptor:      9    25     3     3     1     3
#        Energy - RMSD - RMSD MassCentre:     -40.7003    999.9999    999.9999
#        Receptor:       1  Surface Point:    21  Conformer:     0
#        Ligand:         1  Surface Point:     1  Conformer:     0
#        BUDE Formal Charge: 0
#        ATOM Count: 27
#        Heavy ATOM Count: 17
@<TRIPOS>MOLECULE
pdb1gcz_ligA.pdb_scan_R01_S0021_C0000_L00001_S0001_C0000_G0010_E0001
27 28 1 0 0
SMALL
GASTEIGER
@<TRIPOS>ATOM
       1 C3        -2.4907   -4.2576   -0.7997 C.3       1 YZ9900      0.0513 
       2 C11       -2.3336   -3.0482    0.0770 C.3       1 YZ9900      0.2089 
       3 O1         0.4613   -4.3975    1.5170 O.2       1 YZ9900     -0.2447 
       4 O2        -1.5499   -3.4105    1.2834 O.3       1 YZ9900     -0.4453 
       5 C6         3.7666   -0.5380    0.2025 C.ar      1 YZ9900      0.0063 
       6 C5         1.8580   -2.0357    0.8910 C.ar      1 YZ9900      0.0160 
       7 C4         2.2949    1.7696    1.2699 C.ar      1 YZ9900      0.0796 
       8 O3         0.5346    0.2495    1.8856 O.2       1 YZ9900     -0.4208 
       9 C2         2.4918   -0.6842    0.7993 C.ar      1 YZ9900      0.0353 
      10 C1         1.7917    0.4503    1.3134 C.ar      1 YZ9900      0.1519 
      11 C7        -0.0723   -0.9152    1.9133 C.ar      1 YZ9900      0.3521 
      12 C12       -0.1877   -3.4031    1.3986 C.2       1 YZ9900      0.3476 
      13 O4         4.1631    3.0725    0.5523 O.3       1 YZ9900     -0.2865 
      14 O5        -1.1437   -0.9741    2.3687 O.2       1 YZ9900     -0.2442 
      15 C10        4.3186    0.7741    0.1315 C.ar      1 YZ9900      0.0422 
      16 C9         0.5824   -2.1169    1.3800 C.ar      1 YZ9900      0.1515 
      17 C8         3.5852    1.8632    0.6544 C.ar      1 YZ9900      0.1988 
      18 H31       -1.5068   -4.6343   -1.0797 H         1 YZ9900      0.0000 
      19 H32       -3.0347   -5.0309   -0.2574 H         1 YZ9900      0.0000 
      20 H33       -3.0448   -3.9855   -1.6980 H         1 YZ9900      0.0000 
      21 H112      -3.3172   -2.6872    0.3776 H         1 YZ9900      0.0000 
      22 H113      -1.8119   -2.2654   -0.4736 H         1 YZ9900      0.0000 
      23 H6         4.3028   -1.3912   -0.1856 H         1 YZ9900      0.0000 
      24 H5         2.3914   -2.9219    0.5803 H         1 YZ9900      0.0000 
      25 H4         1.7604    2.6224    1.6615 H         1 YZ9900      0.0000 
      26 HO4        4.1570    3.3541   -0.3654 H         1 YZ9900      0.0000 
      27 H10        5.2877    0.9345   -0.3176 H         1 YZ9900      0.0000 
@<TRIPOS>BOND
       1       13       17 1        
       2        7       17 ar       
       3        7       10 ar       
       4        8       10 ar       
       5        8       11 ar       
       6       14       11 2        
       7       17       15 ar       
       8       10        9 ar       
       9       11       16 ar       
      10        2        4 1        
      11        2        1 1        
      12       15        5 ar       
      13        9        5 ar       
      14        9        6 ar       
      15       16        6 ar       
      16       16       12 1        
      17        4       12 1        
      18       12        3 2        
      19       18        1 1        
      20       19        1 1        
      21       20        1 1        
      22       21        2 1        
      23       22        2 1        
      24       23        5 1        
      25       24        6 1        
      26       25        7 1        
      27       26       13 1        
      28       27       15 1        
@<TRIPOS>SUBSTRUCTURE
 1 YZ9900 10 RESIDUE 4 A YZ9900 0 ROOT

