#        1GCZ_R01_S0001_C0000_L00004_S0001_C0005_G0010_E0001.mol2
#        Tue Jun  6 14:05:20 2017
#        Descriptor:     11     2     3     9     7    14
#        Energy - RMSD - RMSD MassCentre:     -55.2317    999.9999    999.9999
#        Receptor:       1  Surface Point:     1  Conformer:     0
#        Ligand:         4  Surface Point:     1  Conformer:     5
#        BUDE Formal Charge: 0
#        ATOM Count: 46
#        Heavy ATOM Count: 28
@<TRIPOS>MOLECULE
ZINC61563277_1GCZ_R01_S0001_C0000_L00004_S0001_C0005_G0010_E0001
 46 49 0 0 0
SMALL
USER_CHARGES
@<TRIPOS>ATOM
       1 C1        -3.1245   -3.5883    7.2680 C.3       1 <0>        -0.1051 
       2 C2        -1.6169   -3.5802    7.1853 C.2       1 <0>         0.1324 
       3 C3        -0.8493   -4.5785    6.7270 C.2       1 <0>        -0.1714 
       4 C4         0.5837   -4.1392    6.8422 C.ar      1 <0>        -0.0773 
       5 C5         1.8225   -4.7288    6.5635 C.ar      1 <0>        -0.0675 
       6 C6         2.9534   -3.9314    6.7767 C.ar      1 <0>        -0.1361 
       7 C7         2.8263   -2.6026    7.2021 C.ar      1 <0>        -0.0920 
       8 C8         1.5771   -2.0277    7.4654 C.ar      1 <0>        -0.1265 
       9 C9         0.4415   -2.8358    7.3333 C.ar      1 <0>         0.1084 
      10 N1        -0.8608   -2.5741    7.5748 N.pl3     1 <0>        -0.4675 
      11 C10       -1.3623   -1.3144    8.1651 C.3       1 <0>         0.1242 
      12 C11       -1.3793   -0.2348    7.1097 C.2       1 <0>         0.4463 
      13 O1        -0.6421    0.7013    7.2011 O.2       1 <0>        -0.4704 
      14 O2        -2.2275   -0.3276    6.0633 O.3       1 <0>        -0.3437 
      15 C12       -2.2076    0.7189    5.0890 C.3       1 <0>         0.1567 
      16 C13       -0.8540    0.7578    4.4209 C.2       1 <0>         0.2874 
      17 N2         0.1343    1.6313    4.3714 N.2       1 <0>        -0.5106 
      18 C14        1.1785    1.1250    3.5879 C.2       1 <0>         0.2609 
      19 N3         0.8415   -0.0303    3.1521 N.2       1 <0>        -0.3200 
      20 O3        -0.4394   -0.3175    3.6385 O.3       1 <0>        -0.0928 
      21 C15        2.4940    1.8130    3.3124 C.3       1 <0>         0.0037 
      22 C16        3.5121    1.3807    4.3405 C.ar      1 <0>        -0.0973 
      23 C17        3.6675    2.0987    5.5322 C.ar      1 <0>        -0.0995 
      24 C18        4.5952    1.6872    6.4966 C.ar      1 <0>        -0.1207 
      25 C19        5.3936    0.5644    6.2683 C.ar      1 <0>        -0.1122 
      26 C20        5.2516   -0.1523    5.0740 C.ar      1 <0>        -0.1201 
      27 C21        4.3213    0.2612    4.1128 C.ar      1 <0>        -0.1046 
      28 Br1       -1.4096   -6.2360    6.0394 Br        1 <0>        -0.0155 
      29 H1        -3.5244   -2.7764    6.6643 H         1 <0>         0.0903 
      30 H2        -3.4309   -3.4560    8.3035 H         1 <0>         0.0953 
      31 H3        -3.5024   -4.5381    6.8956 H         1 <0>         0.0712 
      32 H4         1.9290   -5.7406    6.2011 H         1 <0>         0.1274 
      33 H5         3.9271   -4.3580    6.5861 H         1 <0>         0.1276 
      34 H6         3.7097   -1.9944    7.3284 H         1 <0>         0.1296 
      35 H7         1.5412   -0.9863    7.7487 H         1 <0>         0.1206 
      36 H8        -0.7097   -1.0122    8.9815 H         1 <0>         0.1394 
      37 H9        -2.3703   -1.4671    8.5450 H         1 <0>         0.1404 
      38 H10       -2.3992    1.6721    5.5775 H         1 <0>         0.1240 
      39 H11       -2.9763    0.5325    4.3420 H         1 <0>         0.1139 
      40 H12        2.3573    2.8910    3.3675 H         1 <0>         0.1085 
      41 H13        2.8435    1.5413    2.3185 H         1 <0>         0.1144 
      42 H14        3.0749    2.9821    5.7183 H         1 <0>         0.1277 
      43 H15        4.7020    2.2477    7.4135 H         1 <0>         0.1259 
      44 H16        6.1098    0.2401    7.0087 H         1 <0>         0.1247 
      45 H17        5.8624   -1.0248    4.8951 H         1 <0>         0.1255 
      46 H18        4.2369   -0.2930    3.1897 H         1 <0>         0.1245 
@<TRIPOS>BOND
       1        1        2 1        
       2        1       29 1        
       3        1       30 1        
       4        1       31 1        
       5        2       10 1        
       6        2        3 2        
       7        3        4 1        
       8        3       28 1        
       9        4        9 ar       
      10        4        5 ar       
      11        5        6 ar       
      12        5       32 1        
      13        6        7 ar       
      14        6       33 1        
      15        7        8 ar       
      16        7       34 1        
      17        8        9 ar       
      18        8       35 1        
      19        9       10 1        
      20       10       11 1        
      21       11       12 1        
      22       11       36 1        
      23       11       37 1        
      24       12       13 2        
      25       12       14 1        
      26       14       15 1        
      27       15       16 1        
      28       15       38 1        
      29       15       39 1        
      30       16       20 1        
      31       16       17 2        
      32       17       18 1        
      33       18       19 2        
      34       18       21 1        
      35       19       20 1        
      36       21       22 1        
      37       21       40 1        
      38       21       41 1        
      39       22       27 ar       
      40       22       23 ar       
      41       23       24 ar       
      42       23       42 1        
      43       24       25 ar       
      44       24       43 1        
      45       25       26 ar       
      46       25       44 1        
      47       26       27 ar       
      48       26       45 1        
      49       27       46 1        

