#        scan_R01_S0021_C0000_L00001_S0001_C0003_G0010_E0001.mol2
#        Mon Jun 19 14:41:29 2017
#        Descriptor:     25    13    34     3     1     4
#        Energy - RMSD - RMSD MassCentre:     -38.1905    999.9999    999.9999
#        Receptor:       1  Surface Point:    21  Conformer:     0
#        Ligand:         1  Surface Point:     1  Conformer:     3
#        BUDE Formal Charge: 0
#        ATOM Count: 27
#        Heavy ATOM Count: 17
@<TRIPOS>MOLECULE
pdb1gcz_ligA.pdb_scan_R01_S0021_C0000_L00001_S0001_C0003_G0010_E0001
27 28 1 0 0
SMALL
GASTEIGER
@<TRIPOS>ATOM
       1 C3         5.6990    0.4814   -2.9745 C.3       1 YZ9900      0.0513 
       2 C11        5.8597   -0.8779   -2.3000 C.3       1 YZ9900      0.2089 
       3 O1         5.1474    0.6470   -0.2802 O.2       1 YZ9900     -0.2447 
       4 O2         4.7121   -1.1456   -1.4898 O.3       1 YZ9900     -0.4453 
       5 C6         1.4684    0.8958    3.3105 C.ar      1 YZ9900      0.0063 
       6 C5         2.9703    0.2974    1.3991 C.ar      1 YZ9900      0.0160 
       7 C4        -0.1403   -1.3197    2.7956 C.ar      1 YZ9900      0.0796 
       8 O3         1.2713   -1.9433    0.9441 O.2       1 YZ9900     -0.4208 
       9 C2         1.7877    0.0402    2.2509 C.ar      1 YZ9900      0.0353 
      10 C1         0.9793   -1.0731    1.9920 C.ar      1 YZ9900      0.1519 
      11 C7         2.3855   -1.6969    0.1453 C.ar      1 YZ9900      0.3521 
      12 C12        4.4394   -0.2953   -0.4774 C.2       1 YZ9900      0.3476 
      13 O4        -1.5701   -0.7495    4.6158 O.3       1 YZ9900     -0.2865 
      14 O5         2.6233   -2.4713   -0.7670 O.2       1 YZ9900     -0.2442 
      15 C10        0.3476    0.6444    4.1110 C.ar      1 YZ9900      0.0422 
      16 C9         3.2627   -0.5302    0.3889 C.ar      1 YZ9900      0.1515 
      17 C8        -0.4647   -0.4671    3.8574 C.ar      1 YZ9900      0.1988 
      18 H31        5.6162    1.2553   -2.2142 H         1 YZ9900      0.0000 
      19 H32        6.5659    0.6793   -3.6014 H         1 YZ9900      0.0000 
      20 H33        4.8005    0.4772   -3.5880 H         1 YZ9900      0.0000 
      21 H112       6.7502   -0.8704   -1.6750 H         1 YZ9900      0.0000 
      22 H113       5.9552   -1.6512   -3.0593 H         1 YZ9900      0.0000 
      23 H6         2.0873    1.7566    3.5162 H         1 YZ9900      0.0000 
      24 H5         3.5875    1.1589    1.6069 H         1 YZ9900      0.0000 
      25 H4        -0.7609   -2.1800    2.5920 H         1 YZ9900      0.0000 
      26 HO4       -2.0222   -1.5430    4.2889 H         1 YZ9900      0.0000 
      27 H10        0.1231    1.3204    4.9228 H         1 YZ9900      0.0000 
@<TRIPOS>BOND
       1       13       17 1        
       2        7       17 ar       
       3        7       10 ar       
       4        8       10 ar       
       5        8       11 ar       
       6       14       11 2        
       7       17       15 ar       
       8       10        9 ar       
       9       11       16 ar       
      10        2        4 1        
      11        2        1 1        
      12       15        5 ar       
      13        9        5 ar       
      14        9        6 ar       
      15       16        6 ar       
      16       16       12 1        
      17        4       12 1        
      18       12        3 2        
      19       18        1 1        
      20       19        1 1        
      21       20        1 1        
      22       21        2 1        
      23       22        2 1        
      24       23        5 1        
      25       24        6 1        
      26       25        7 1        
      27       26       13 1        
      28       27       15 1        
@<TRIPOS>SUBSTRUCTURE
 1 YZ9900 10 RESIDUE 4 A YZ9900 0 ROOT

