#        scan_R01_S0022_C0000_L00001_S0001_C0000_G0010_E0001.mol2
#        Mon Jun 19 14:41:29 2017
#        Descriptor:      1     5     5     3     1     5
#        Energy - RMSD - RMSD MassCentre:     -44.2426    999.9999    999.9999
#        Receptor:       1  Surface Point:    22  Conformer:     0
#        Ligand:         1  Surface Point:     1  Conformer:     0
#        BUDE Formal Charge: 0
#        ATOM Count: 27
#        Heavy ATOM Count: 17
@<TRIPOS>MOLECULE
pdb1gcz_ligA.pdb_scan_R01_S0022_C0000_L00001_S0001_C0000_G0010_E0001
27 28 1 0 0
SMALL
GASTEIGER
@<TRIPOS>ATOM
       1 C3         5.1320   -2.1204    5.7761 C.3       1 YZ9900      0.0513 
       2 C11        4.6951   -1.7723    4.3819 C.3       1 YZ9900      0.2089 
       3 O1         2.0221   -3.8923    4.6403 O.2       1 YZ9900     -0.2447 
       4 O2         3.8620   -2.8717    3.8359 O.3       1 YZ9900     -0.4453 
       5 C6        -1.7100   -0.2954    3.8142 C.ar      1 YZ9900      0.0063 
       6 C5         0.3348   -1.7696    3.8866 C.ar      1 YZ9900      0.0160 
       7 C4        -0.7433    0.8623    1.2932 C.ar      1 YZ9900      0.0796 
       8 O3         1.1670   -0.5908    1.4616 O.2       1 YZ9900     -0.4208 
       9 C2        -0.4951   -0.7170    3.2234 C.ar      1 YZ9900      0.0353 
      10 C1        -0.0418   -0.1424    1.9963 C.ar      1 YZ9900      0.1519 
      11 C7         1.9470   -1.4612    2.0611 C.ar      1 YZ9900      0.3521 
      12 C12        2.5117   -3.0198    3.9897 C.2       1 YZ9900      0.3476 
      13 O4        -2.7142    2.2090    1.3577 O.3       1 YZ9900     -0.2865 
      14 O5         2.9624   -1.7370    1.5594 O.2       1 YZ9900     -0.2442 
      15 C10       -2.4555    0.7186    3.1452 C.ar      1 YZ9900      0.0422 
      16 C9         1.5509   -2.0721    3.3367 C.ar      1 YZ9900      0.1515 
      17 C8        -1.9630    1.2549    1.9339 C.ar      1 YZ9900      0.1988 
      18 H31        4.2548   -2.2847    6.4020 H         1 YZ9900      0.0000 
      19 H32        5.7356   -3.0277    5.7516 H         1 YZ9900      0.0000 
      20 H33        5.7231   -1.3017    6.1865 H         1 YZ9900      0.0000 
      21 H112       5.5725   -1.6334    3.7503 H         1 YZ9900      0.0000 
      22 H113       4.1128   -0.8511    4.4027 H         1 YZ9900      0.0000 
      23 H6        -2.0603   -0.7272    4.7399 H         1 YZ9900      0.0000 
      24 H5        -0.0153   -2.2762    4.7738 H         1 YZ9900      0.0000 
      25 H4        -0.3949    1.2914    0.3654 H         1 YZ9900      0.0000 
      26 HO4       -2.6607    3.0155    1.8756 H         1 YZ9900      0.0000 
      27 H10       -3.3874    1.0737    3.5600 H         1 YZ9900      0.0000 
@<TRIPOS>BOND
       1       13       17 1        
       2        7       17 ar       
       3        7       10 ar       
       4        8       10 ar       
       5        8       11 ar       
       6       14       11 2        
       7       17       15 ar       
       8       10        9 ar       
       9       11       16 ar       
      10        2        4 1        
      11        2        1 1        
      12       15        5 ar       
      13        9        5 ar       
      14        9        6 ar       
      15       16        6 ar       
      16       16       12 1        
      17        4       12 1        
      18       12        3 2        
      19       18        1 1        
      20       19        1 1        
      21       20        1 1        
      22       21        2 1        
      23       22        2 1        
      24       23        5 1        
      25       24        6 1        
      26       25        7 1        
      27       26       13 1        
      28       27       15 1        
@<TRIPOS>SUBSTRUCTURE
 1 YZ9900 10 RESIDUE 4 A YZ9900 0 ROOT

