#        scan_R01_S0022_C0000_L00001_S0001_C0000_G0010_E0001.mol2
#        Mon Jun 19 14:13:10 2017
#        Descriptor:      1     6     6     3     1     5
#        Energy - RMSD - RMSD MassCentre:     -41.0349    999.9999    999.9999
#        Receptor:       1  Surface Point:    22  Conformer:     0
#        Ligand:         1  Surface Point:     1  Conformer:     0
#        BUDE Formal Charge: 0
#        ATOM Count: 27
#        Heavy ATOM Count: 17
@<TRIPOS>MOLECULE
pdb1gcz_ligA.pdb_scan_R01_S0022_C0000_L00001_S0001_C0000_G0010_E0001
27 28 1 0 0
SMALL
GASTEIGER
@<TRIPOS>ATOM
       1 C3         5.0091   -1.8270    6.0461 C.3       1 YZ9900      0.0513 
       2 C11        4.6395   -1.3502    4.6706 C.3       1 YZ9900      0.2089 
       3 O1         2.3782   -3.8970    4.3448 O.2       1 YZ9900     -0.2447 
       4 O2         4.0678   -2.4773    3.8937 O.3       1 YZ9900     -0.4453 
       5 C6        -1.8528   -0.8833    3.5930 C.ar      1 YZ9900      0.0063 
       6 C5         0.4093   -1.9934    3.6965 C.ar      1 YZ9900      0.0160 
       7 C4        -0.8943    0.7839    1.3722 C.ar      1 YZ9900      0.0796 
       8 O3         1.2237   -0.3422    1.5580 O.2       1 YZ9900     -0.4208 
       9 C2        -0.5353   -1.0047    3.0907 C.ar      1 YZ9900      0.0353 
      10 C1        -0.0877   -0.1852    2.0094 C.ar      1 YZ9900      0.1519 
      11 C7         2.0923   -1.1519    2.1197 C.ar      1 YZ9900      0.3521 
      12 C12        2.7579   -2.8679    3.8748 C.2       1 YZ9900      0.3476 
      13 O4        -3.0730    1.7613    1.3949 O.3       1 YZ9900     -0.2865 
      14 O5         3.1804   -1.1776    1.7023 O.2       1 YZ9900     -0.2442 
      15 C10       -2.7072    0.0825    2.9860 C.ar      1 YZ9900      0.0422 
      16 C9         1.7031   -2.0047    3.2504 C.ar      1 YZ9900      0.1515 
      17 C8        -2.2156    0.8688    1.9193 C.ar      1 YZ9900      0.1988 
      18 H31        4.1246   -2.2261    6.5427 H         1 YZ9900      0.0000 
      19 H32        5.7655   -2.6080    5.9686 H         1 YZ9900      0.0000 
      20 H33        5.4058   -0.9931    6.6251 H         1 YZ9900      0.0000 
      21 H112       5.5293   -0.9749    4.1650 H         1 YZ9900      0.0000 
      22 H113       3.9018   -0.5516    4.7487 H         1 YZ9900      0.0000 
      23 H6        -2.1989   -1.5013    4.4081 H         1 YZ9900      0.0000 
      24 H5         0.0801   -2.6784    4.4637 H         1 YZ9900      0.0000 
      25 H4        -0.5494    1.3993    0.5545 H         1 YZ9900      0.0000 
      26 HO4       -3.2103    2.4784    2.0183 H         1 YZ9900      0.0000 
      27 H10       -3.7201    0.2123    3.3376 H         1 YZ9900      0.0000 
@<TRIPOS>BOND
       1       13       17 1        
       2        7       17 ar       
       3        7       10 ar       
       4        8       10 ar       
       5        8       11 ar       
       6       14       11 2        
       7       17       15 ar       
       8       10        9 ar       
       9       11       16 ar       
      10        2        4 1        
      11        2        1 1        
      12       15        5 ar       
      13        9        5 ar       
      14        9        6 ar       
      15       16        6 ar       
      16       16       12 1        
      17        4       12 1        
      18       12        3 2        
      19       18        1 1        
      20       19        1 1        
      21       20        1 1        
      22       21        2 1        
      23       22        2 1        
      24       23        5 1        
      25       24        6 1        
      26       25        7 1        
      27       26       13 1        
      28       27       15 1        
@<TRIPOS>SUBSTRUCTURE
 1 YZ9900 10 RESIDUE 4 A YZ9900 0 ROOT

