#        scan_R01_S0022_C0000_L00001_S0001_C0002_G0010_E0001.mol2
#        Mon Jun 19 14:13:10 2017
#        Descriptor:     25     3     6     3     1     5
#        Energy - RMSD - RMSD MassCentre:     -42.9387    999.9999    999.9999
#        Receptor:       1  Surface Point:    22  Conformer:     0
#        Ligand:         1  Surface Point:     1  Conformer:     2
#        BUDE Formal Charge: 0
#        ATOM Count: 27
#        Heavy ATOM Count: 17
@<TRIPOS>MOLECULE
pdb1gcz_ligA.pdb_scan_R01_S0022_C0000_L00001_S0001_C0002_G0010_E0001
27 28 1 0 0
SMALL
GASTEIGER
@<TRIPOS>ATOM
       1 C3        -2.7833   -5.9339   -0.9985 C.3       1 YZ9900      0.0513 
       2 C11       -3.0490   -4.4593   -0.7094 C.3       1 YZ9900      0.2089 
       3 O1        -2.9810   -1.9630    0.1126 O.2       1 YZ9900     -0.2447 
       4 O2        -2.0066   -3.9421    0.1217 O.3       1 YZ9900     -0.4453 
       5 C6        -0.0181    1.1199    2.9775 C.ar      1 YZ9900      0.0063 
       6 C5        -1.0576   -0.7777    1.7180 C.ar      1 YZ9900      0.0160 
       7 C4         2.0732   -0.5220    3.8094 C.ar      1 YZ9900      0.0796 
       8 O3         1.1172   -2.3842    2.6146 O.2       1 YZ9900     -0.4208 
       9 C2         0.0104   -0.2204    2.5779 C.ar      1 YZ9900      0.0353 
      10 C1         1.0612   -1.0455    2.9959 C.ar      1 YZ9900      0.1519 
      11 C7         0.1098   -2.9040    1.8052 C.ar      1 YZ9900      0.3521 
      12 C12       -2.0718   -2.6434    0.4847 C.2       1 YZ9900      0.3476 
      13 O4         3.0625    1.2852    5.0085 O.3       1 YZ9900     -0.2865 
      14 O5         0.1779   -4.0787    1.4827 O.2       1 YZ9900     -0.2442 
      15 C10        0.9965    1.6382    3.7911 C.ar      1 YZ9900      0.0422 
      16 C9        -1.0165   -2.0619    1.3440 C.ar      1 YZ9900      0.1515 
      17 C8         2.0501    0.8184    4.2124 C.ar      1 YZ9900      0.1988 
      18 H31       -2.7700   -6.4895   -0.0630 H         1 YZ9900      0.0000 
      19 H32       -3.5693   -6.3240   -1.6416 H         1 YZ9900      0.0000 
      20 H33       -1.8215   -6.0377   -1.4963 H         1 YZ9900      0.0000 
      21 H112      -4.0042   -4.3555   -0.1989 H         1 YZ9900      0.0000 
      22 H113      -3.0750   -3.9046   -1.6450 H         1 YZ9900      0.0000 
      23 H6        -0.8257    1.7623    2.6590 H         1 YZ9900      0.0000 
      24 H5        -1.8639   -0.1330    1.4009 H         1 YZ9900      0.0000 
      25 H4         2.8819   -1.1625    4.1293 H         1 YZ9900      0.0000 
      26 HO4        3.6946    0.5793    5.2164 H         1 YZ9900      0.0000 
      27 H10        0.9510    2.6763    4.0855 H         1 YZ9900      0.0000 
@<TRIPOS>BOND
       1       13       17 1        
       2        7       17 ar       
       3        7       10 ar       
       4        8       10 ar       
       5        8       11 ar       
       6       14       11 2        
       7       17       15 ar       
       8       10        9 ar       
       9       11       16 ar       
      10        2        4 1        
      11        2        1 1        
      12       15        5 ar       
      13        9        5 ar       
      14        9        6 ar       
      15       16        6 ar       
      16       16       12 1        
      17        4       12 1        
      18       12        3 2        
      19       18        1 1        
      20       19        1 1        
      21       20        1 1        
      22       21        2 1        
      23       22        2 1        
      24       23        5 1        
      25       24        6 1        
      26       25        7 1        
      27       26       13 1        
      28       27       15 1        
@<TRIPOS>SUBSTRUCTURE
 1 YZ9900 10 RESIDUE 4 A YZ9900 0 ROOT

