#        scan_R01_S0022_C0000_L00001_S0001_C0003_G0010_E0001.mol2
#        Mon Jun 19 14:41:30 2017
#        Descriptor:      6    15    24     3     1     5
#        Energy - RMSD - RMSD MassCentre:     -42.5215    999.9999    999.9999
#        Receptor:       1  Surface Point:    22  Conformer:     0
#        Ligand:         1  Surface Point:     1  Conformer:     3
#        BUDE Formal Charge: 0
#        ATOM Count: 27
#        Heavy ATOM Count: 17
@<TRIPOS>MOLECULE
pdb1gcz_ligA.pdb_scan_R01_S0022_C0000_L00001_S0001_C0003_G0010_E0001
27 28 1 0 0
SMALL
GASTEIGER
@<TRIPOS>ATOM
       1 C3        -4.2464   -4.1091   -0.4394 C.3       1 YZ9900      0.0513 
       2 C11       -2.8455   -4.4048   -0.9674 C.3       1 YZ9900      0.2089 
       3 O1        -2.6537   -1.8642   -0.3192 O.2       1 YZ9900     -0.2447 
       4 O2        -1.8740   -3.9091   -0.0425 O.3       1 YZ9900     -0.4453 
       5 C6         0.1918    1.1873    2.6945 C.ar      1 YZ9900      0.0063 
       6 C5        -0.8490   -0.7144    1.4424 C.ar      1 YZ9900      0.0160 
       7 C4         2.0011   -0.5476    3.9102 C.ar      1 YZ9900      0.0796 
       8 O3         1.0377   -2.4158    2.7308 O.2       1 YZ9900     -0.4208 
       9 C2         0.1477   -0.1787    2.3964 C.ar      1 YZ9900      0.0353 
      10 C1         1.0568   -1.0506    3.0073 C.ar      1 YZ9900      0.1519 
      11 C7         0.0977   -2.9151    1.8322 C.ar      1 YZ9900      0.3521 
      12 C12       -1.8654   -2.5843    0.2174 C.2       1 YZ9900      0.3476 
      13 O4         2.9918    1.2636    5.1022 O.3       1 YZ9900     -0.2865 
      14 O5         0.0982   -4.1136    1.6042 O.2       1 YZ9900     -0.2442 
      15 C10        1.1382    1.6850    3.5983 C.ar      1 YZ9900      0.0422 
      16 C9        -0.8789   -2.0237    1.1675 C.ar      1 YZ9900      0.1515 
      17 C8         2.0501    0.8184    4.2124 C.ar      1 YZ9900      0.1988 
      18 H31       -4.3748   -3.0336   -0.3363 H         1 YZ9900      0.0000 
      19 H32       -4.9856   -4.4981   -1.1366 H         1 YZ9900      0.0000 
      20 H33       -4.3758   -4.5851    0.5302 H         1 YZ9900      0.0000 
      21 H112      -2.7100   -3.9176   -1.9306 H         1 YZ9900      0.0000 
      22 H113      -2.7202   -5.4793   -1.0828 H         1 YZ9900      0.0000 
      23 H6        -0.5064    1.8659    2.2271 H         1 YZ9900      0.0000 
      24 H5        -1.5460   -0.0336    0.9764 H         1 YZ9900      0.0000 
      25 H4         2.7004   -1.2242    4.3790 H         1 YZ9900      0.0000 
      26 HO4        3.5249    0.5275    5.4412 H         1 YZ9900      0.0000 
      27 H10        1.1512    2.7437    3.8111 H         1 YZ9900      0.0000 
@<TRIPOS>BOND
       1       13       17 1        
       2        7       17 ar       
       3        7       10 ar       
       4        8       10 ar       
       5        8       11 ar       
       6       14       11 2        
       7       17       15 ar       
       8       10        9 ar       
       9       11       16 ar       
      10        2        4 1        
      11        2        1 1        
      12       15        5 ar       
      13        9        5 ar       
      14        9        6 ar       
      15       16        6 ar       
      16       16       12 1        
      17        4       12 1        
      18       12        3 2        
      19       18        1 1        
      20       19        1 1        
      21       20        1 1        
      22       21        2 1        
      23       22        2 1        
      24       23        5 1        
      25       24        6 1        
      26       25        7 1        
      27       26       13 1        
      28       27       15 1        
@<TRIPOS>SUBSTRUCTURE
 1 YZ9900 10 RESIDUE 4 A YZ9900 0 ROOT

