#        scan_R01_S0023_C0000_L00001_S0001_C0000_G0010_E0001.mol2
#        Mon Jun 19 14:41:31 2017
#        Descriptor:     23     1    28     3     3     7
#        Energy - RMSD - RMSD MassCentre:     -41.4961    999.9999    999.9999
#        Receptor:       1  Surface Point:    23  Conformer:     0
#        Ligand:         1  Surface Point:     1  Conformer:     0
#        BUDE Formal Charge: 0
#        ATOM Count: 27
#        Heavy ATOM Count: 17
@<TRIPOS>MOLECULE
pdb1gcz_ligA.pdb_scan_R01_S0023_C0000_L00001_S0001_C0000_G0010_E0001
27 28 1 0 0
SMALL
GASTEIGER
@<TRIPOS>ATOM
       1 C3         4.6844   -1.2472    7.7223 C.3       1 YZ9900      0.0513 
       2 C11        3.5089   -0.3210    7.8496 C.3       1 YZ9900      0.2089 
       3 O1         4.4607    1.3513    5.0205 O.2       1 YZ9900     -0.2447 
       4 O2         3.7984    0.9465    7.1351 O.3       1 YZ9900     -0.4453 
       5 C6         0.0633    0.5022    2.2837 C.ar      1 YZ9900      0.0063 
       6 C5         1.8786    0.9456    3.9773 C.ar      1 YZ9900      0.0160 
       7 C4        -1.9251    1.4879    4.2085 C.ar      1 YZ9900      0.0796 
       8 O3        -0.1150    1.8732    5.7460 O.2       1 YZ9900     -0.4208 
       9 C2         0.4402    0.9618    3.5680 C.ar      1 YZ9900      0.0353 
      10 C1        -0.5416    1.4381    4.4903 C.ar      1 YZ9900      0.1519 
      11 C7         1.1319    1.8021    6.1534 C.ar      1 YZ9900      0.3521 
      12 C12        3.5786    1.1994    5.8098 C.2       1 YZ9900      0.3476 
      13 O4        -3.5431    1.0052    2.5199 O.3       1 YZ9900     -0.2865 
      14 O5         1.3833    2.1444    7.2389 O.2       1 YZ9900     -0.2442 
      15 C10       -1.3221    0.5293    1.9502 C.ar      1 YZ9900      0.0422 
      16 C9         2.1863    1.3000    5.2628 C.ar      1 YZ9900      0.1515 
      17 C8        -2.2534    1.0096    2.8986 C.ar      1 YZ9900      0.1988 
      18 H31        4.8849   -1.4378    6.6679 H         1 YZ9900      0.0000 
      19 H32        5.5600   -0.7877    8.1810 H         1 YZ9900      0.0000 
      20 H33        4.4619   -2.1879    8.2258 H         1 YZ9900      0.0000 
      21 H112       3.3249   -0.1102    8.9031 H         1 YZ9900      0.0000 
      22 H113       2.6272   -0.7906    7.4135 H         1 YZ9900      0.0000 
      23 H6         0.8001    0.1435    1.5804 H         1 YZ9900      0.0000 
      24 H5         2.6519    0.6625    3.2787 H         1 YZ9900      0.0000 
      25 H4        -2.6615    1.8502    4.9105 H         1 YZ9900      0.0000 
      26 HO4       -3.8638    0.1010    2.4851 H         1 YZ9900      0.0000 
      27 H10       -1.6570    0.1861    0.9824 H         1 YZ9900      0.0000 
@<TRIPOS>BOND
       1       13       17 1        
       2        7       17 ar       
       3        7       10 ar       
       4        8       10 ar       
       5        8       11 ar       
       6       14       11 2        
       7       17       15 ar       
       8       10        9 ar       
       9       11       16 ar       
      10        2        4 1        
      11        2        1 1        
      12       15        5 ar       
      13        9        5 ar       
      14        9        6 ar       
      15       16        6 ar       
      16       16       12 1        
      17        4       12 1        
      18       12        3 2        
      19       18        1 1        
      20       19        1 1        
      21       20        1 1        
      22       21        2 1        
      23       22        2 1        
      24       23        5 1        
      25       24        6 1        
      26       25        7 1        
      27       26       13 1        
      28       27       15 1        
@<TRIPOS>SUBSTRUCTURE
 1 YZ9900 10 RESIDUE 4 A YZ9900 0 ROOT

