#        1GCZ_R01_S0001_C0000_L00004_S0001_C0006_G0010_E0001.mol2
#        Tue Jun  6 09:55:24 2017
#        Descriptor:      9    35     6     8     8    11
#        Energy - RMSD - RMSD MassCentre:     -83.3590    999.9999    999.9999
#        Receptor:       1  Surface Point:     1  Conformer:     0
#        Ligand:         4  Surface Point:     1  Conformer:     6
#        BUDE Formal Charge: 0
#        ATOM Count: 46
#        Heavy ATOM Count: 28
@<TRIPOS>MOLECULE
ZINC61563277_1GCZ_R01_S0001_C0000_L00004_S0001_C0006_G0010_E0001
 46 49 0 0 0
SMALL
USER_CHARGES
@<TRIPOS>ATOM
       1 C1        -1.7778   -2.2716    7.5060 C.3       1 <0>        -0.1051 
       2 C2        -0.4429   -1.7228    7.0623 C.2       1 <0>         0.1324 
       3 C3         0.7140   -2.3983    7.0320 C.2       1 <0>        -0.1714 
       4 C4         1.7767   -1.4569    6.5379 C.ar      1 <0>        -0.0773 
       5 C5         3.1562   -1.5523    6.3195 C.ar      1 <0>        -0.0675 
       6 C6         3.7825   -0.4180    5.7890 C.ar      1 <0>        -0.1361 
       7 C7         3.0412    0.7241    5.4588 C.ar      1 <0>        -0.0920 
       8 C8         1.6598    0.7961    5.6751 C.ar      1 <0>        -0.1265 
       9 C9         1.0317   -0.3003    6.2781 C.ar      1 <0>         0.1084 
      10 N1        -0.2513   -0.4842    6.6564 N.pl3     1 <0>        -0.4675 
      11 C10       -1.2977    0.5585    6.5889 C.3       1 <0>         0.1242 
      12 C11       -1.7770    0.7003    5.1641 C.2       1 <0>         0.4463 
      13 O1        -1.5597    1.7073    4.5585 O.2       1 <0>        -0.4704 
      14 O2        -2.4507   -0.3106    4.5752 O.3       1 <0>        -0.3437 
      15 C12       -2.8847   -0.1303    3.2247 C.3       1 <0>         0.1567 
      16 C13       -1.6811    0.0374    2.3283 C.2       1 <0>         0.2874 
      17 N2        -1.2077    1.0160    1.5798 N.2       1 <0>        -0.5106 
      18 C14       -0.0224    0.6080    0.9562 C.2       1 <0>         0.2609 
      19 N3         0.2278   -0.5992    1.3004 N.2       1 <0>        -0.3200 
      20 O3        -0.7905   -1.0209    2.1636 O.3       1 <0>        -0.0928 
      21 C15        0.8342    1.4511    0.0423 C.3       1 <0>         0.0037 
      22 C16        0.4075    1.2326   -1.3895 C.ar      1 <0>        -0.0973 
      23 C17        1.0026    0.2287   -2.1630 C.ar      1 <0>        -0.0995 
      24 C18        0.5934    0.0095   -3.4838 C.ar      1 <0>        -0.1207 
      25 C19       -0.4013    0.8084   -4.0521 C.ar      1 <0>        -0.1122 
      26 C20       -0.9932    1.8214   -3.2883 C.ar      1 <0>        -0.1201 
      27 C21       -0.5826    2.0363   -1.9671 C.ar      1 <0>        -0.1046 
      28 Br1        1.0069   -4.1967    7.4944 Br        1 <0>        -0.0155 
      29 H1        -2.4875   -2.2056    6.6841 H         1 <0>         0.0903 
      30 H2        -2.1449   -1.6920    8.3504 H         1 <0>         0.0953 
      31 H3        -1.6610   -3.3118    7.8025 H         1 <0>         0.0712 
      32 H4         3.7306   -2.4407    6.5374 H         1 <0>         0.1274 
      33 H5         4.8488   -0.4502    5.6208 H         1 <0>         0.1276 
      34 H6         3.5385    1.5763    5.0196 H         1 <0>         0.1296 
      35 H7         1.1369    1.6869    5.3600 H         1 <0>         0.1206 
      36 H8        -0.8864    1.5066    6.9286 H         1 <0>         0.1394 
      37 H9        -2.1329    0.2769    7.2269 H         1 <0>         0.1404 
      38 H10       -3.5115    0.7568    3.1611 H         1 <0>         0.1240 
      39 H11       -3.4547   -1.0013    2.9083 H         1 <0>         0.1139 
      40 H12        1.8776    1.1650    0.1582 H         1 <0>         0.1085 
      41 H13        0.7145    2.5012    0.3008 H         1 <0>         0.1144 
      42 H14        1.7885   -0.3855   -1.7489 H         1 <0>         0.1277 
      43 H15        1.0578   -0.7711   -4.0681 H         1 <0>         0.1259 
      44 H16       -0.7231    0.6435   -5.0697 H         1 <0>         0.1247 
      45 H17       -1.7670    2.4381   -3.7210 H         1 <0>         0.1255 
      46 H18       -1.0377    2.8333   -1.3977 H         1 <0>         0.1245 
@<TRIPOS>BOND
       1        1        2 1        
       2        1       29 1        
       3        1       30 1        
       4        1       31 1        
       5        2       10 1        
       6        2        3 2        
       7        3        4 1        
       8        3       28 1        
       9        4        9 ar       
      10        4        5 ar       
      11        5        6 ar       
      12        5       32 1        
      13        6        7 ar       
      14        6       33 1        
      15        7        8 ar       
      16        7       34 1        
      17        8        9 ar       
      18        8       35 1        
      19        9       10 1        
      20       10       11 1        
      21       11       12 1        
      22       11       36 1        
      23       11       37 1        
      24       12       13 2        
      25       12       14 1        
      26       14       15 1        
      27       15       16 1        
      28       15       38 1        
      29       15       39 1        
      30       16       20 1        
      31       16       17 2        
      32       17       18 1        
      33       18       19 2        
      34       18       21 1        
      35       19       20 1        
      36       21       22 1        
      37       21       40 1        
      38       21       41 1        
      39       22       27 ar       
      40       22       23 ar       
      41       23       24 ar       
      42       23       42 1        
      43       24       25 ar       
      44       24       43 1        
      45       25       26 ar       
      46       25       44 1        
      47       26       27 ar       
      48       26       45 1        
      49       27       46 1        

