#        scan_R01_S0023_C0000_L00001_S0001_C0002_G0010_E0001.mol2
#        Mon Jun 19 14:41:31 2017
#        Descriptor:     31    24     9     3     3     6
#        Energy - RMSD - RMSD MassCentre:     -43.7749    999.9999    999.9999
#        Receptor:       1  Surface Point:    23  Conformer:     0
#        Ligand:         1  Surface Point:     1  Conformer:     2
#        BUDE Formal Charge: 0
#        ATOM Count: 27
#        Heavy ATOM Count: 17
@<TRIPOS>MOLECULE
pdb1gcz_ligA.pdb_scan_R01_S0023_C0000_L00001_S0001_C0002_G0010_E0001
27 28 1 0 0
SMALL
GASTEIGER
@<TRIPOS>ATOM
       1 C3         0.2657    5.1113   10.0994 C.3       1 YZ9900      0.0513 
       2 C11       -0.4966    5.1298    8.7777 C.3       1 YZ9900      0.2089 
       3 O1        -1.4256    4.6983    6.3564 O.2       1 YZ9900     -0.2447 
       4 O2         0.0291    4.1211    7.9110 O.3       1 YZ9900     -0.4453 
       5 C6        -0.5622    1.5916    2.3446 C.ar      1 YZ9900      0.0063 
       6 C5        -0.5459    2.8027    4.5356 C.ar      1 YZ9900      0.0160 
       7 C4         1.5407   -0.0341    3.1792 C.ar      1 YZ9900      0.0796 
       8 O3         1.6015    1.0971    5.3066 O.2       1 YZ9900     -0.4208 
       9 C2        -0.0181    1.7652    3.6216 C.ar      1 YZ9900      0.0353 
      10 C1         1.0386    0.9484    4.0410 C.ar      1 YZ9900      0.1519 
      11 C7         1.1011    2.0750    6.1632 C.ar      1 YZ9900      0.3521 
      12 C12       -0.5244    3.9865    6.6870 C.2       1 YZ9900      0.3476 
      13 O4         1.5247   -1.1869    1.0926 O.3       1 YZ9900     -0.2865 
      14 O5         1.6082    2.1885    7.2670 O.2       1 YZ9900     -0.2442 
      15 C10       -0.0563    0.6076    1.4868 C.ar      1 YZ9900      0.0422 
      16 C9        -0.0149    2.9568    5.7542 C.ar      1 YZ9900      0.1515 
      17 C8         1.0002   -0.2125    1.9002 C.ar      1 YZ9900      0.1988 
      18 H31        1.3175    5.3195    9.9137 H         1 YZ9900      0.0000 
      19 H32       -0.1430    5.8698   10.7636 H         1 YZ9900      0.0000 
      20 H33        0.1654    4.1315   10.5615 H         1 YZ9900      0.0000 
      21 H112      -0.3854    6.1047    8.3076 H         1 YZ9900      0.0000 
      22 H113      -1.5506    4.9342    8.9634 H         1 YZ9900      0.0000 
      23 H6        -1.3775    2.2181    2.0142 H         1 YZ9900      0.0000 
      24 H5        -1.3613    3.4278    4.2027 H         1 YZ9900      0.0000 
      25 H4         2.3560   -0.6619    3.5072 H         1 YZ9900      0.0000 
      26 HO4        2.2586   -1.6444    1.5320 H         1 YZ9900      0.0000 
      27 H10       -0.4942    0.4941    0.5061 H         1 YZ9900      0.0000 
@<TRIPOS>BOND
       1       13       17 1        
       2        7       17 ar       
       3        7       10 ar       
       4        8       10 ar       
       5        8       11 ar       
       6       14       11 2        
       7       17       15 ar       
       8       10        9 ar       
       9       11       16 ar       
      10        2        4 1        
      11        2        1 1        
      12       15        5 ar       
      13        9        5 ar       
      14        9        6 ar       
      15       16        6 ar       
      16       16       12 1        
      17        4       12 1        
      18       12        3 2        
      19       18        1 1        
      20       19        1 1        
      21       20        1 1        
      22       21        2 1        
      23       22        2 1        
      24       23        5 1        
      25       24        6 1        
      26       25        7 1        
      27       26       13 1        
      28       27       15 1        
@<TRIPOS>SUBSTRUCTURE
 1 YZ9900 10 RESIDUE 4 A YZ9900 0 ROOT

