#        scan_R01_S0024_C0000_L00001_S0001_C0000_G0010_E0001.mol2
#        Mon Jun 19 14:41:32 2017
#        Descriptor:     22    34     5     2     3     5
#        Energy - RMSD - RMSD MassCentre:     -30.1403    999.9999    999.9999
#        Receptor:       1  Surface Point:    24  Conformer:     0
#        Ligand:         1  Surface Point:     1  Conformer:     0
#        BUDE Formal Charge: 0
#        ATOM Count: 27
#        Heavy ATOM Count: 17
@<TRIPOS>MOLECULE
pdb1gcz_ligA.pdb_scan_R01_S0024_C0000_L00001_S0001_C0000_G0010_E0001
27 28 1 0 0
SMALL
GASTEIGER
@<TRIPOS>ATOM
       1 C3        -0.4016    6.0731    3.3715 C.3       1 YZ9900      0.0513 
       2 C11       -0.2355    4.8300    4.1980 C.3       1 YZ9900      0.2089 
       3 O1        -2.5978    3.2127    2.3245 O.2       1 YZ9900     -0.2447 
       4 O2        -1.4649    4.0051    4.1029 O.3       1 YZ9900     -0.4453 
       5 C6         0.4815   -0.7099    0.6874 C.ar      1 YZ9900      0.0063 
       6 C5        -0.7500    1.1355    1.8865 C.ar      1 YZ9900      0.0160 
       7 C4         1.4943   -1.6670    3.2737 C.ar      1 YZ9900      0.0796 
       8 O3         0.2782    0.1295    4.3141 O.2       1 YZ9900     -0.4208 
       9 C2         0.1397   -0.0665    1.9007 C.ar      1 YZ9900      0.0353 
      10 C1         0.6419   -0.5473    3.1489 C.ar      1 YZ9900      0.1519 
      11 C7        -0.4427    1.2277    4.3204 C.ar      1 YZ9900      0.3521 
      12 C12       -1.7427    3.0704    3.1448 C.2       1 YZ9900      0.3476 
      13 O4         2.6205   -3.3529    2.0120 O.3       1 YZ9900     -0.2865 
      14 O5        -0.6532    1.7497    5.3411 O.2       1 YZ9900     -0.2442 
      15 C10        1.3417   -1.8441    0.7582 C.ar      1 YZ9900      0.0422 
      16 C9        -0.9699    1.7879    3.0693 C.ar      1 YZ9900      0.1515 
      17 C8         1.8116   -2.2794    2.0180 C.ar      1 YZ9900      0.1988 
      18 H31       -0.6000    5.7975    2.3357 H         1 YZ9900      0.0000 
      19 H32       -1.2367    6.6572    3.7582 H         1 YZ9900      0.0000 
      20 H33        0.5110    6.6669    3.4213 H         1 YZ9900      0.0000 
      21 H112      -0.0628    5.1059    5.2383 H         1 YZ9900      0.0000 
      22 H113       0.6153    4.2582    3.8276 H         1 YZ9900      0.0000 
      23 H6         0.1035   -0.3539   -0.2594 H         1 YZ9900      0.0000 
      24 H5        -1.2057    1.4788    0.9695 H         1 YZ9900      0.0000 
      25 H4         1.8692   -2.0253    4.2209 H         1 YZ9900      0.0000 
      26 HO4        3.4732   -3.1095    1.6442 H         1 YZ9900      0.0000 
      27 H10        1.6316   -2.3658   -0.1420 H         1 YZ9900      0.0000 
@<TRIPOS>BOND
       1       13       17 1        
       2        7       17 ar       
       3        7       10 ar       
       4        8       10 ar       
       5        8       11 ar       
       6       14       11 2        
       7       17       15 ar       
       8       10        9 ar       
       9       11       16 ar       
      10        2        4 1        
      11        2        1 1        
      12       15        5 ar       
      13        9        5 ar       
      14        9        6 ar       
      15       16        6 ar       
      16       16       12 1        
      17        4       12 1        
      18       12        3 2        
      19       18        1 1        
      20       19        1 1        
      21       20        1 1        
      22       21        2 1        
      23       22        2 1        
      24       23        5 1        
      25       24        6 1        
      26       25        7 1        
      27       26       13 1        
      28       27       15 1        
@<TRIPOS>SUBSTRUCTURE
 1 YZ9900 10 RESIDUE 4 A YZ9900 0 ROOT

