#        scan_R01_S0024_C0000_L00001_S0001_C0000_G0010_E0001.mol2
#        Mon Jun 19 14:13:13 2017
#        Descriptor:     22    33     5     2     3     5
#        Energy - RMSD - RMSD MassCentre:     -30.7177    999.9999    999.9999
#        Receptor:       1  Surface Point:    24  Conformer:     0
#        Ligand:         1  Surface Point:     1  Conformer:     0
#        BUDE Formal Charge: 0
#        ATOM Count: 27
#        Heavy ATOM Count: 17
@<TRIPOS>MOLECULE
pdb1gcz_ligA.pdb_scan_R01_S0024_C0000_L00001_S0001_C0000_G0010_E0001
27 28 1 0 0
SMALL
GASTEIGER
@<TRIPOS>ATOM
       1 C3        -0.3955    6.0803    2.7359 C.3       1 YZ9900      0.0513 
       2 C11       -0.1290    4.9570    3.6966 C.3       1 YZ9900      0.2089 
       3 O1        -2.6734    3.1225    2.3304 O.2       1 YZ9900     -0.2447 
       4 O2        -1.3550    4.1360    3.8499 O.3       1 YZ9900     -0.4453 
       5 C6         0.2331   -1.0059    0.8963 C.ar      1 YZ9900      0.0063 
       6 C5        -0.8706    0.9918    1.9691 C.ar      1 YZ9900      0.0160 
       7 C4         1.5354   -1.6180    3.4575 C.ar      1 YZ9900      0.0796 
       8 O3         0.4297    0.3100    4.3789 O.2       1 YZ9900     -0.4208 
       9 C2         0.0241   -0.2042    2.0437 C.ar      1 YZ9900      0.0353 
      10 C1         0.6661   -0.5185    3.2808 C.ar      1 YZ9900      0.1519 
      11 C7        -0.2942    1.4046    4.3195 C.ar      1 YZ9900      0.3521 
      12 C12       -1.7311    3.0842    3.0617 C.2       1 YZ9900      0.3476 
      13 O4         2.5264   -3.4651    2.3135 O.3       1 YZ9900     -0.2865 
      14 O5        -0.3934    2.0593    5.2787 O.2       1 YZ9900     -0.2442 
      15 C10        1.1043   -2.1270    1.0208 C.ar      1 YZ9900      0.0422 
      16 C9        -0.9620    1.7973    3.0717 C.ar      1 YZ9900      0.1515 
      17 C8         1.7151   -2.3944    2.2670 C.ar      1 YZ9900      0.1988 
      18 H31       -0.7062    5.6709    1.7746 H         1 YZ9900      0.0000 
      19 H32       -1.1867    6.7169    3.1321 H         1 YZ9900      0.0000 
      20 H33        0.5124    6.6686    2.6040 H         1 YZ9900      0.0000 
      21 H112       0.1567    5.3675    4.6652 H         1 YZ9900      0.0000 
      22 H113       0.6795    4.3346    3.3129 H         1 YZ9900      0.0000 
      23 H6        -0.2508   -0.7761   -0.0413 H         1 YZ9900      0.0000 
      24 H5        -1.4283    1.2135    1.0712 H         1 YZ9900      0.0000 
      25 H4         2.0164   -1.8500    4.3962 H         1 YZ9900      0.0000 
      26 HO4        3.3308   -3.2792    1.8238 H         1 YZ9900      0.0000 
      27 H10        1.2958   -2.7659    0.1713 H         1 YZ9900      0.0000 
@<TRIPOS>BOND
       1       13       17 1        
       2        7       17 ar       
       3        7       10 ar       
       4        8       10 ar       
       5        8       11 ar       
       6       14       11 2        
       7       17       15 ar       
       8       10        9 ar       
       9       11       16 ar       
      10        2        4 1        
      11        2        1 1        
      12       15        5 ar       
      13        9        5 ar       
      14        9        6 ar       
      15       16        6 ar       
      16       16       12 1        
      17        4       12 1        
      18       12        3 2        
      19       18        1 1        
      20       19        1 1        
      21       20        1 1        
      22       21        2 1        
      23       22        2 1        
      24       23        5 1        
      25       24        6 1        
      26       25        7 1        
      27       26       13 1        
      28       27       15 1        
@<TRIPOS>SUBSTRUCTURE
 1 YZ9900 10 RESIDUE 4 A YZ9900 0 ROOT

