#        scan_R01_S0024_C0000_L00001_S0001_C0002_G0010_E0001.mol2
#        Mon Jun 19 14:41:33 2017
#        Descriptor:     32    19    19     1     2     6
#        Energy - RMSD - RMSD MassCentre:     -38.2661    999.9999    999.9999
#        Receptor:       1  Surface Point:    24  Conformer:     0
#        Ligand:         1  Surface Point:     1  Conformer:     2
#        BUDE Formal Charge: 0
#        ATOM Count: 27
#        Heavy ATOM Count: 17
@<TRIPOS>MOLECULE
pdb1gcz_ligA.pdb_scan_R01_S0024_C0000_L00001_S0001_C0002_G0010_E0001
27 28 1 0 0
SMALL
GASTEIGER
@<TRIPOS>ATOM
       1 C3        -8.1143   -1.8986    4.6533 C.3       1 YZ9900      0.0513 
       2 C11       -7.0398   -2.3522    3.6693 C.3       1 YZ9900      0.2089 
       3 O1        -4.8318   -2.7442    2.2971 O.2       1 YZ9900     -0.2447 
       4 O2        -5.8096   -1.6872    3.9682 O.3       1 YZ9900     -0.4453 
       5 C6         0.0582   -1.1393    2.2356 C.ar      1 YZ9900      0.0063 
       6 C5        -2.3624   -1.5581    2.7183 C.ar      1 YZ9900      0.0160 
       7 C4         0.2108    0.6686    4.3497 C.ar      1 YZ9900      0.0796 
       8 O3        -2.1165    0.3042    4.8598 O.2       1 YZ9900     -0.4208 
       9 C2        -1.0785   -0.8817    3.0092 C.ar      1 YZ9900      0.0353 
      10 C1        -1.0019    0.0268    4.0715 C.ar      1 YZ9900      0.1519 
      11 C7        -3.3226   -0.3350    4.5820 C.ar      1 YZ9900      0.3521 
      12 C12       -4.7365   -1.9641    3.1973 C.2       1 YZ9900      0.3476 
      13 O4         2.5157    1.0669    3.8896 O.3       1 YZ9900     -0.2865 
      14 O5        -4.2863   -0.0778    5.2845 O.2       1 YZ9900     -0.2442 
      15 C10        1.2684   -0.4947    2.5182 C.ar      1 YZ9900      0.0422 
      16 C9        -3.4412   -1.3012    3.4673 C.ar      1 YZ9900      0.1515 
      17 C8         1.3516    0.4148    3.5791 C.ar      1 YZ9900      0.1988 
      18 H31       -8.2621   -0.8248    4.5583 H         1 YZ9900      0.0000 
      19 H32       -9.0468   -2.4145    4.4341 H         1 YZ9900      0.0000 
      20 H33       -7.7988   -2.1337    5.6676 H         1 YZ9900      0.0000 
      21 H112      -7.3478   -2.1050    2.6554 H         1 YZ9900      0.0000 
      22 H113      -6.8999   -3.4277    3.7543 H         1 YZ9900      0.0000 
      23 H6         0.0066   -1.8389    1.4145 H         1 YZ9900      0.0000 
      24 H5        -2.4112   -2.2573    1.8966 H         1 YZ9900      0.0000 
      25 H4         0.2650    1.3687    5.1704 H         1 YZ9900      0.0000 
      26 HO4        2.3870    1.6696    4.6388 H         1 YZ9900      0.0000 
      27 H10        2.1312   -0.7113    1.9058 H         1 YZ9900      0.0000 
@<TRIPOS>BOND
       1       13       17 1        
       2        7       17 ar       
       3        7       10 ar       
       4        8       10 ar       
       5        8       11 ar       
       6       14       11 2        
       7       17       15 ar       
       8       10        9 ar       
       9       11       16 ar       
      10        2        4 1        
      11        2        1 1        
      12       15        5 ar       
      13        9        5 ar       
      14        9        6 ar       
      15       16        6 ar       
      16       16       12 1        
      17        4       12 1        
      18       12        3 2        
      19       18        1 1        
      20       19        1 1        
      21       20        1 1        
      22       21        2 1        
      23       22        2 1        
      24       23        5 1        
      25       24        6 1        
      26       25        7 1        
      27       26       13 1        
      28       27       15 1        
@<TRIPOS>SUBSTRUCTURE
 1 YZ9900 10 RESIDUE 4 A YZ9900 0 ROOT

