#        scan_R01_S0024_C0000_L00001_S0001_C0003_G0010_E0001.mol2
#        Mon Jun 19 14:41:33 2017
#        Descriptor:     33    20    20     1     3     6
#        Energy - RMSD - RMSD MassCentre:     -39.0578    999.9999    999.9999
#        Receptor:       1  Surface Point:    24  Conformer:     0
#        Ligand:         1  Surface Point:     1  Conformer:     3
#        BUDE Formal Charge: 0
#        ATOM Count: 27
#        Heavy ATOM Count: 17
@<TRIPOS>MOLECULE
pdb1gcz_ligA.pdb_scan_R01_S0024_C0000_L00001_S0001_C0003_G0010_E0001
27 28 1 0 0
SMALL
GASTEIGER
@<TRIPOS>ATOM
       1 C3        -7.4345   -1.6833    3.3540 C.3       1 YZ9900      0.0513 
       2 C11       -6.6581   -2.1237    4.5916 C.3       1 YZ9900      0.2089 
       3 O1        -4.7701   -2.0609    2.7630 O.2       1 YZ9900     -0.2447 
       4 O2        -5.4767   -1.3282    4.7201 O.3       1 YZ9900     -0.4453 
       5 C6        -0.2264    0.2071    1.9254 C.ar      1 YZ9900      0.0063 
       6 C5        -2.4205   -0.5922    2.8280 C.ar      1 YZ9900      0.0160 
       7 C4         0.1732    1.7911    4.1822 C.ar      1 YZ9900      0.0796 
       8 O3        -1.9308    1.0555    5.0995 O.2       1 YZ9900     -0.4208 
       9 C2        -1.1901    0.2228    2.9393 C.ar      1 YZ9900      0.0353 
      10 C1        -0.9894    1.0188    4.0733 C.ar      1 YZ9900      0.1519 
      11 C7        -3.0871    0.2866    4.9901 C.ar      1 YZ9900      0.3521 
      12 C12       -4.5718   -1.3721    3.7192 C.2       1 YZ9900      0.3476 
      13 O4         2.2624    2.5518    3.3222 O.3       1 YZ9900     -0.2865 
      14 O5        -3.8986    0.3333    5.8999 O.2       1 YZ9900     -0.2442 
      15 C10        0.9344    0.9814    2.0394 C.ar      1 YZ9900      0.0422 
      16 C9        -3.3333   -0.5666    3.8062 C.ar      1 YZ9900      0.1515 
      17 C8         1.1411    1.7794    3.1709 C.ar      1 YZ9900      0.1988 
      18 H31       -6.8166   -1.8248    2.4696 H         1 YZ9900      0.0000 
      19 H32       -8.3402   -2.2795    3.2637 H         1 YZ9900      0.0000 
      20 H33       -7.6994   -0.6323    3.4478 H         1 YZ9900      0.0000 
      21 H112      -6.3803   -3.1709    4.4927 H         1 YZ9900      0.0000 
      22 H113      -7.2794   -1.9944    5.4753 H         1 YZ9900      0.0000 
      23 H6        -0.3745   -0.4045    1.0477 H         1 YZ9900      0.0000 
      24 H5        -2.5660   -1.2029    1.9492 H         1 YZ9900      0.0000 
      25 H4         0.3236    2.4036    5.0590 H         1 YZ9900      0.0000 
      26 HO4        2.2312    3.0503    4.1539 H         1 YZ9900      0.0000 
      27 H10        1.6628    0.9514    1.2426 H         1 YZ9900      0.0000 
@<TRIPOS>BOND
       1       13       17 1        
       2        7       17 ar       
       3        7       10 ar       
       4        8       10 ar       
       5        8       11 ar       
       6       14       11 2        
       7       17       15 ar       
       8       10        9 ar       
       9       11       16 ar       
      10        2        4 1        
      11        2        1 1        
      12       15        5 ar       
      13        9        5 ar       
      14        9        6 ar       
      15       16        6 ar       
      16       16       12 1        
      17        4       12 1        
      18       12        3 2        
      19       18        1 1        
      20       19        1 1        
      21       20        1 1        
      22       21        2 1        
      23       22        2 1        
      24       23        5 1        
      25       24        6 1        
      26       25        7 1        
      27       26       13 1        
      28       27       15 1        
@<TRIPOS>SUBSTRUCTURE
 1 YZ9900 10 RESIDUE 4 A YZ9900 0 ROOT

