#        1GCZ_R01_S0001_C0000_L00004_S0001_C0006_G0010_E0001.mol2
#        Tue Jun  6 14:05:22 2017
#        Descriptor:      8    35    22     9     9    13
#        Energy - RMSD - RMSD MassCentre:     -65.5430    999.9999    999.9999
#        Receptor:       1  Surface Point:     1  Conformer:     0
#        Ligand:         4  Surface Point:     1  Conformer:     6
#        BUDE Formal Charge: 0
#        ATOM Count: 46
#        Heavy ATOM Count: 28
@<TRIPOS>MOLECULE
ZINC61563277_1GCZ_R01_S0001_C0000_L00004_S0001_C0006_G0010_E0001
 46 49 0 0 0
SMALL
USER_CHARGES
@<TRIPOS>ATOM
       1 C1         3.9008    2.0214    9.3780 C.3       1 <0>        -0.1051 
       2 C2         2.4199    1.9662    9.0887 C.2       1 <0>         0.1324 
       3 C3         1.5424    2.9592    9.2879 C.2       1 <0>        -0.1714 
       4 C4         0.1871    2.4573    8.8744 C.ar      1 <0>        -0.0773 
       5 C5        -1.1056    2.9946    8.8702 C.ar      1 <0>        -0.0675 
       6 C6        -2.1155    2.1828    8.3399 C.ar      1 <0>        -0.1361 
       7 C7        -1.8182    0.9223    7.8055 C.ar      1 <0>        -0.0920 
       8 C8        -0.5165    0.4068    7.8095 C.ar      1 <0>        -0.1265 
       9 C9         0.4912    1.1728    8.4076 C.ar      1 <0>         0.1084 
      10 N1         1.7998    0.9078    8.6081 N.pl3     1 <0>        -0.4675 
      11 C10        2.4455   -0.3855    8.2965 C.3       1 <0>         0.1242 
      12 C11        2.6921   -0.4807    6.8099 C.2       1 <0>         0.4463 
      13 O1         2.0993   -1.2869    6.1568 O.2       1 <0>        -0.4704 
      14 O2         3.5822    0.3450    6.2195 O.3       1 <0>        -0.3437 
      15 C12        3.7822    0.2177    4.8093 C.3       1 <0>         0.1567 
      16 C13        2.4955    0.5409    4.0882 C.2       1 <0>         0.2874 
      17 N2         1.6546   -0.1422    3.3343 N.2       1 <0>        -0.5106 
      18 C14        0.5989    0.6836    2.9296 C.2       1 <0>         0.2609 
      19 N3         0.7860    1.8546    3.4115 N.2       1 <0>        -0.3200 
      20 O3         1.9754    1.8318    4.1494 O.3       1 <0>        -0.0928 
      21 C15       -0.5782    0.2662    2.0810 C.3       1 <0>         0.0037 
      22 C16       -0.2671    0.5280    0.6268 C.ar      1 <0>        -0.0973 
      23 C17       -0.5944    1.7564    0.0402 C.ar      1 <0>        -0.0995 
      24 C18       -0.2872    2.0098   -1.3020 C.ar      1 <0>        -0.1207 
      25 C19        0.3313    1.0271   -2.0780 C.ar      1 <0>        -0.1122 
      26 C20        0.6515   -0.2077   -1.5013 C.ar      1 <0>        -0.1201 
      27 C21        0.3445   -0.4567   -0.1581 C.ar      1 <0>        -0.1046 
      28 Br1        1.8908    4.6860    9.9443 Br        1 <0>        -0.0155 
      29 H1         4.4559    1.8499    8.4582 H         1 <0>         0.0903 
      30 H2         4.1564    1.2537   10.1051 H         1 <0>         0.0953 
      31 H3         4.1552    3.0005    9.7785 H         1 <0>         0.0712 
      32 H4        -1.3392    3.9795    9.2471 H         1 <0>         0.1274 
      33 H5        -3.1279    2.5589    8.3335 H         1 <0>         0.1276 
      34 H6        -2.6067    0.3258    7.3710 H         1 <0>         0.1296 
      35 H7        -0.3430   -0.5521    7.3441 H         1 <0>         0.1206 
      36 H8         1.7946   -1.1995    8.6083 H         1 <0>         0.1394 
      37 H9         3.3928   -0.4559    8.8272 H         1 <0>         0.1404 
      38 H10        4.0828   -0.8018    4.5769 H         1 <0>         0.1240 
      39 H11        4.5606    0.9077    4.4904 H         1 <0>         0.1139 
      40 H12       -1.4563    0.8381    2.3735 H         1 <0>         0.1085 
      41 H13       -0.7707   -0.7948    2.2260 H         1 <0>         0.1144 
      42 H14       -1.0924    2.5213    0.6175 H         1 <0>         0.1277 
      43 H15       -0.5414    2.9633   -1.7410 H         1 <0>         0.1259 
      44 H16        0.5729    1.2166   -3.1134 H         1 <0>         0.1247 
      45 H17        1.1353   -0.9689   -2.0954 H         1 <0>         0.1255 
      46 H18        0.5830   -1.4209    0.2661 H         1 <0>         0.1245 
@<TRIPOS>BOND
       1        1        2 1        
       2        1       29 1        
       3        1       30 1        
       4        1       31 1        
       5        2       10 1        
       6        2        3 2        
       7        3        4 1        
       8        3       28 1        
       9        4        9 ar       
      10        4        5 ar       
      11        5        6 ar       
      12        5       32 1        
      13        6        7 ar       
      14        6       33 1        
      15        7        8 ar       
      16        7       34 1        
      17        8        9 ar       
      18        8       35 1        
      19        9       10 1        
      20       10       11 1        
      21       11       12 1        
      22       11       36 1        
      23       11       37 1        
      24       12       13 2        
      25       12       14 1        
      26       14       15 1        
      27       15       16 1        
      28       15       38 1        
      29       15       39 1        
      30       16       20 1        
      31       16       17 2        
      32       17       18 1        
      33       18       19 2        
      34       18       21 1        
      35       19       20 1        
      36       21       22 1        
      37       21       40 1        
      38       21       41 1        
      39       22       27 ar       
      40       22       23 ar       
      41       23       24 ar       
      42       23       42 1        
      43       24       25 ar       
      44       24       43 1        
      45       25       26 ar       
      46       25       44 1        
      47       26       27 ar       
      48       26       45 1        
      49       27       46 1        

