#        1GCZ_R01_S0001_C0000_L00002_S0001_C0003_G0010_E0001.mol2
#        Tue Jun  6 14:03:17 2017
#        Descriptor:      6     1     1    15    10    15
#        Energy - RMSD - RMSD MassCentre:     -47.0260    999.9999    999.9999
#        Receptor:       1  Surface Point:     1  Conformer:     0
#        Ligand:         2  Surface Point:     1  Conformer:     3
#        BUDE Formal Charge: 0
#        ATOM Count: 22
#        Heavy ATOM Count: 16
@<TRIPOS>MOLECULE
ZINC02227500_0_1GCZ_R01_S0001_C0000_L00002_S0001_C0003_G0010_E0001
 22 24 1 0 0
SMALL
USER_CHARGES
INVALID_CHARGES
@<TRIPOS>ATOM
       1 C1         5.7045    2.3938    6.4278 C.3       1 <1>         0.3194 
       2 N1         6.9998    1.9990    6.9999 N.pl3     1 <1>        -0.4769 
       3 C2         7.1198    1.5737    8.2303 C.2       1 <1>         0.3171 
       4 C3         8.4116    1.1625    8.8240 C.2       1 <1>         0.3210 
       5 N2         8.2426    0.7808   10.0762 N.2       1 <1>        -0.2760 
       6 O1         6.8649    0.9531   10.2555 O.3       1 <1>         0.0506 
       7 N3         6.1599    1.4417    9.1268 N.2       1 <1>        -0.2740 
       8 N4         9.5841    1.1975    8.1163 N.pl3     1 <1>        -0.4794 
       9 C4         9.4649    1.6418    6.8260 C.2       1 <1>         0.3182 
      10 C5         8.1556    2.0447    6.2658 C.2       1 <1>         0.3113 
      11 N5         8.3060    2.4308    5.0126 N.2       1 <1>        -0.2636 
      12 O2         9.7013    2.2609    4.8180 O.3       1 <1>         0.0468 
      13 N6        10.4162    1.7796    5.9213 N.2       1 <1>        -0.2717 
      14 C6        10.8744    0.8024    8.6992 C.3       1 <1>         0.3187 
      15 O3        11.4912    1.9412    9.3055 O.3       1 <1>        -0.5831 
      16 O4         4.9671    3.1497    7.3921 O.3       1 <1>        -0.5790 
      17 H1         5.1412    1.5030    6.1585 H         1 <1>         0.0922 
      18 H2         5.8693    3.0003    5.5398 H         1 <1>         0.0977 
      19 H3        11.5214    0.4130    7.9158 H         1 <1>         0.0998 
      20 H4        10.7115    0.0338    9.4517 H         1 <1>         0.0941 
      21 H5        10.9206    2.3208    9.9921 H         1 <1>         0.4091 
      22 H6         5.4655    3.9323    7.6749 H         1 <1>         0.4075 
@<TRIPOS>BOND
       1        1        2 1        
       2        1       16 1        
       3        1       17 1        
       4        1       18 1        
       5        2       10 1        
       6        2        3 1        
       7        3        7 2        
       8        3        4 1        
       9        4        5 2        
      10        4        8 1        
      11        5        6 1        
      12        6        7 1        
      13        8        9 1        
      14        8       14 1        
      15        9       13 2        
      16        9       10 1        
      17       10       11 2        
      18       11       12 1        
      19       12       13 1        
      20       14       15 1        
      21       14       19 1        
      22       14       20 1        
      23       15       21 1        
      24       16       22 1        
@<TRIPOS>SUBSTRUCTURE
 1 **** 1 TEMP 0 **** **** 0 ROOT

