#        scan_R01_S0025_C0000_L00001_S0001_C0000_G0010_E0001.mol2
#        Mon Jun 19 14:41:34 2017
#        Descriptor:     16    10    22     2     2     4
#        Energy - RMSD - RMSD MassCentre:     -39.8787    999.9999    999.9999
#        Receptor:       1  Surface Point:    25  Conformer:     0
#        Ligand:         1  Surface Point:     1  Conformer:     0
#        BUDE Formal Charge: 0
#        ATOM Count: 27
#        Heavy ATOM Count: 17
@<TRIPOS>MOLECULE
pdb1gcz_ligA.pdb_scan_R01_S0025_C0000_L00001_S0001_C0000_G0010_E0001
27 28 1 0 0
SMALL
GASTEIGER
@<TRIPOS>ATOM
       1 C3         0.7369   -3.5084    5.6309 C.3       1 YZ9900      0.0513 
       2 C11        1.3563   -2.9352    4.3885 C.3       1 YZ9900      0.2089 
       3 O1        -1.6835   -2.9320    2.8183 O.2       1 YZ9900     -0.2447 
       4 O2         0.5086   -3.2641    3.2164 O.3       1 YZ9900     -0.4453 
       5 C6        -1.8815    2.2229    1.8508 C.ar      1 YZ9900      0.0063 
       6 C5        -1.3143   -0.2055    2.2266 C.ar      1 YZ9900      0.0160 
       7 C4         0.6957    2.5776    0.4859 C.ar      1 YZ9900      0.0796 
       8 O3         1.1331    0.2477    0.8969 O.2       1 YZ9900     -0.4208 
       9 C2        -0.9747    1.1484    1.6895 C.ar      1 YZ9900      0.0353 
      10 C1         0.2739    1.3405    1.0221 C.ar      1 YZ9900      0.1519 
      11 C7         0.8886   -0.9314    1.4219 C.ar      1 YZ9900      0.3521 
      12 C12       -0.5574   -2.5416    2.7576 C.2       1 YZ9900      0.3476 
      13 O4         0.0397    4.8575    0.2128 O.3       1 YZ9900     -0.2865 
      14 O5         1.6905   -1.7694    1.3065 O.2       1 YZ9900     -0.2442 
      15 C10       -1.5023    3.4941    1.3295 C.ar      1 YZ9900      0.0422 
      16 C9        -0.3660   -1.1885    2.1411 C.ar      1 YZ9900      0.1515 
      17 C8        -0.2556    3.6315    0.6780 C.ar      1 YZ9900      0.1988 
      18 H31       -0.2671   -3.1031    5.7573 H         1 YZ9900      0.0000 
      19 H32        0.6819   -4.5934    5.5418 H         1 YZ9900      0.0000 
      20 H33        1.3465   -3.2453    6.4953 H         1 YZ9900      0.0000 
      21 H112       2.3502   -3.3603    4.2487 H         1 YZ9900      0.0000 
      22 H113       1.4348   -1.8525    4.4877 H         1 YZ9900      0.0000 
      23 H6        -2.8281    2.0845    2.3516 H         1 YZ9900      0.0000 
      24 H5        -2.2796   -0.4017    2.6691 H         1 YZ9900      0.0000 
      25 H4         1.6407    2.7151   -0.0183 H         1 YZ9900      0.0000 
      26 HO4        0.2250    5.4439    0.9499 H         1 YZ9900      0.0000 
      27 H10       -2.1611    4.3439    1.4313 H         1 YZ9900      0.0000 
@<TRIPOS>BOND
       1       13       17 1        
       2        7       17 ar       
       3        7       10 ar       
       4        8       10 ar       
       5        8       11 ar       
       6       14       11 2        
       7       17       15 ar       
       8       10        9 ar       
       9       11       16 ar       
      10        2        4 1        
      11        2        1 1        
      12       15        5 ar       
      13        9        5 ar       
      14        9        6 ar       
      15       16        6 ar       
      16       16       12 1        
      17        4       12 1        
      18       12        3 2        
      19       18        1 1        
      20       19        1 1        
      21       20        1 1        
      22       21        2 1        
      23       22        2 1        
      24       23        5 1        
      25       24        6 1        
      26       25        7 1        
      27       26       13 1        
      28       27       15 1        
@<TRIPOS>SUBSTRUCTURE
 1 YZ9900 10 RESIDUE 4 A YZ9900 0 ROOT

