#        scan_R01_S0025_C0000_L00001_S0001_C0000_G0010_E0001.mol2
#        Mon Jun 19 14:13:15 2017
#        Descriptor:     14    23    27     1     1     3
#        Energy - RMSD - RMSD MassCentre:     -40.7002    999.9999    999.9999
#        Receptor:       1  Surface Point:    25  Conformer:     0
#        Ligand:         1  Surface Point:     1  Conformer:     0
#        BUDE Formal Charge: 0
#        ATOM Count: 27
#        Heavy ATOM Count: 17
@<TRIPOS>MOLECULE
pdb1gcz_ligA.pdb_scan_R01_S0025_C0000_L00001_S0001_C0000_G0010_E0001
27 28 1 0 0
SMALL
GASTEIGER
@<TRIPOS>ATOM
       1 C3         1.1855    3.5904    0.5672 C.3       1 YZ9900      0.0513 
       2 C11        1.5047    2.1344    0.7516 C.3       1 YZ9900      0.2089 
       3 O1        -1.0241    1.8212    3.0348 O.2       1 YZ9900     -0.2447 
       4 O2         1.0091    1.6833    2.0751 O.3       1 YZ9900     -0.4453 
       5 C6        -3.7319   -1.8687    0.4657 C.ar      1 YZ9900      0.0063 
       6 C5        -2.0430   -0.3281    1.5306 C.ar      1 YZ9900      0.0160 
       7 C4        -1.6078   -3.8558    0.0537 C.ar      1 YZ9900      0.0796 
       8 O3        -0.0824   -2.3086    1.0872 O.2       1 YZ9900     -0.4208 
       9 C2        -2.3999   -1.6249    0.8768 C.ar      1 YZ9900      0.0353 
      10 C1        -1.3806   -2.6042    0.6682 C.ar      1 YZ9900      0.1519 
      11 C7         0.2691   -1.1506    1.5982 C.ar      1 YZ9900      0.3521 
      12 C12       -0.2462    1.2214    2.3572 C.2       1 YZ9900      0.3476 
      13 O4        -3.3046   -5.2061   -0.9464 O.3       1 YZ9900     -0.2865 
      14 O5         1.3891   -0.9800    1.8726 O.2       1 YZ9900     -0.2442 
      15 C10       -4.0139   -3.1167   -0.1623 C.ar      1 YZ9900      0.0422 
      16 C9        -0.7256   -0.0924    1.8169 C.ar      1 YZ9900      0.1515 
      17 C8        -2.9697   -4.0513   -0.3455 C.ar      1 YZ9900      0.1988 
      18 H31        0.1085    3.7395    0.6452 H         1 YZ9900      0.0000 
      19 H32        1.6895    4.1731    1.3383 H         1 YZ9900      0.0000 
      20 H33        1.5273    3.9155   -0.4154 H         1 YZ9900      0.0000 
      21 H112       2.5839    1.9896    0.6992 H         1 YZ9900      0.0000 
      22 H113       1.0216    1.5539   -0.0344 H         1 YZ9900      0.0000 
      23 H6        -4.5081   -1.1345    0.6226 H         1 YZ9900      0.0000 
      24 H5        -2.8027    0.4012    1.7699 H         1 YZ9900      0.0000 
      25 H4        -0.8324   -4.5917   -0.0997 H         1 YZ9900      0.0000 
      26 HO4       -3.4838   -5.0438   -1.8754 H         1 YZ9900      0.0000 
      27 H10       -5.0156   -3.3458   -0.4949 H         1 YZ9900      0.0000 
@<TRIPOS>BOND
       1       13       17 1        
       2        7       17 ar       
       3        7       10 ar       
       4        8       10 ar       
       5        8       11 ar       
       6       14       11 2        
       7       17       15 ar       
       8       10        9 ar       
       9       11       16 ar       
      10        2        4 1        
      11        2        1 1        
      12       15        5 ar       
      13        9        5 ar       
      14        9        6 ar       
      15       16        6 ar       
      16       16       12 1        
      17        4       12 1        
      18       12        3 2        
      19       18        1 1        
      20       19        1 1        
      21       20        1 1        
      22       21        2 1        
      23       22        2 1        
      24       23        5 1        
      25       24        6 1        
      26       25        7 1        
      27       26       13 1        
      28       27       15 1        
@<TRIPOS>SUBSTRUCTURE
 1 YZ9900 10 RESIDUE 4 A YZ9900 0 ROOT

