#        scan_R01_S0025_C0000_L00001_S0001_C0002_G0010_E0001.mol2
#        Mon Jun 19 14:41:35 2017
#        Descriptor:     25     1    27     1     2     4
#        Energy - RMSD - RMSD MassCentre:     -40.8788    999.9999    999.9999
#        Receptor:       1  Surface Point:    25  Conformer:     0
#        Ligand:         1  Surface Point:     1  Conformer:     2
#        BUDE Formal Charge: 0
#        ATOM Count: 27
#        Heavy ATOM Count: 17
@<TRIPOS>MOLECULE
pdb1gcz_ligA.pdb_scan_R01_S0025_C0000_L00001_S0001_C0002_G0010_E0001
27 28 1 0 0
SMALL
GASTEIGER
@<TRIPOS>ATOM
       1 C3        -0.1905    7.1603    0.3511 C.3       1 YZ9900      0.0513 
       2 C11        0.7769    5.9863    0.2313 C.3       1 YZ9900      0.2089 
       3 O1         1.9662    3.6417    0.2528 O.2       1 YZ9900     -0.2447 
       4 O2         0.1328    4.7913    0.6809 O.3       1 YZ9900     -0.4453 
       5 C6         0.9416   -1.2391    1.5251 C.ar      1 YZ9900      0.0063 
       6 C5         0.8931    1.2243    1.0813 C.ar      1 YZ9900      0.0160 
       7 C4        -1.6905   -1.1701    2.4355 C.ar      1 YZ9900      0.0796 
       8 O3        -1.7936    1.2032    2.0278 O.2       1 YZ9900     -0.4208 
       9 C2         0.2468   -0.0251    1.5417 C.ar      1 YZ9900      0.0353 
      10 C1        -1.0758    0.0097    1.9992 C.ar      1 YZ9900      0.1519 
      11 C7        -1.1810    2.3764    1.5934 C.ar      1 YZ9900      0.3521 
      12 C12        0.8386    3.6409    0.6485 C.2       1 YZ9900      0.3476 
      13 O4        -1.6436   -3.5158    2.8578 O.3       1 YZ9900     -0.2865 
      14 O5        -1.8274    3.4106    1.6267 O.2       1 YZ9900     -0.2442 
      15 C10        0.3221   -2.4159    1.9625 C.ar      1 YZ9900      0.0422 
      16 C9         0.2154    2.3780    1.1033 C.ar      1 YZ9900      0.1515 
      17 C8        -1.0002   -2.3879    2.4211 C.ar      1 YZ9900      0.1988 
      18 H31       -0.4798    7.2863    1.3924 H         1 YZ9900      0.0000 
      19 H32        0.2951    8.0671   -0.0033 H         1 YZ9900      0.0000 
      20 H33       -1.0753    6.9632   -0.2505 H         1 YZ9900      0.0000 
      21 H112       1.6560    6.1759    0.8437 H         1 YZ9900      0.0000 
      22 H113       1.0767    5.8671   -0.8076 H         1 YZ9900      0.0000 
      23 H6         1.9622   -1.2736    1.1735 H         1 YZ9900      0.0000 
      24 H5         1.9137    1.1869    0.7303 H         1 YZ9900      0.0000 
      25 H4        -2.7110   -1.1382    2.7875 H         1 YZ9900      0.0000 
      26 HO4       -2.5439   -3.3094    3.1541 H         1 YZ9900      0.0000 
      27 H10        0.8806   -3.3400    1.9395 H         1 YZ9900      0.0000 
@<TRIPOS>BOND
       1       13       17 1        
       2        7       17 ar       
       3        7       10 ar       
       4        8       10 ar       
       5        8       11 ar       
       6       14       11 2        
       7       17       15 ar       
       8       10        9 ar       
       9       11       16 ar       
      10        2        4 1        
      11        2        1 1        
      12       15        5 ar       
      13        9        5 ar       
      14        9        6 ar       
      15       16        6 ar       
      16       16       12 1        
      17        4       12 1        
      18       12        3 2        
      19       18        1 1        
      20       19        1 1        
      21       20        1 1        
      22       21        2 1        
      23       22        2 1        
      24       23        5 1        
      25       24        6 1        
      26       25        7 1        
      27       26       13 1        
      28       27       15 1        
@<TRIPOS>SUBSTRUCTURE
 1 YZ9900 10 RESIDUE 4 A YZ9900 0 ROOT

