#        scan_R01_S0025_C0000_L00001_S0001_C0002_G0010_E0001.mol2
#        Mon Jun 19 14:13:16 2017
#        Descriptor:     30    18     6     2     2     4
#        Energy - RMSD - RMSD MassCentre:     -40.9252    999.9999    999.9999
#        Receptor:       1  Surface Point:    25  Conformer:     0
#        Ligand:         1  Surface Point:     1  Conformer:     2
#        BUDE Formal Charge: 0
#        ATOM Count: 27
#        Heavy ATOM Count: 17
@<TRIPOS>MOLECULE
pdb1gcz_ligA.pdb_scan_R01_S0025_C0000_L00001_S0001_C0002_G0010_E0001
27 28 1 0 0
SMALL
GASTEIGER
@<TRIPOS>ATOM
       1 C3         2.9659    6.7607    1.6245 C.3       1 YZ9900      0.0513 
       2 C11        1.6462    6.2116    1.0903 C.3       1 YZ9900      0.2089 
       3 O1        -0.4283    4.7388    0.4274 O.2       1 YZ9900     -0.2447 
       4 O2         1.5333    4.8277    1.4325 O.3       1 YZ9900     -0.4453 
       5 C6        -2.1028   -0.0998    0.9516 C.ar      1 YZ9900      0.0063 
       6 C5        -0.8304    2.0558    0.9947 C.ar      1 YZ9900      0.0160 
       7 C4        -0.0799   -1.3717    2.3839 C.ar      1 YZ9900      0.0796 
       8 O3         1.1886    0.6764    2.4561 O.2       1 YZ9900     -0.4208 
       9 C2        -0.9690    0.6228    1.3378 C.ar      1 YZ9900      0.0353 
      10 C1         0.0476   -0.0163    2.0575 C.ar      1 YZ9900      0.1519 
      11 C7         1.3144    2.0250    2.1308 C.ar      1 YZ9900      0.3521 
      12 C12        0.4231    4.1670    1.0407 C.2       1 YZ9900      0.3476 
      13 O4        -1.2920   -3.4240    2.3424 O.3       1 YZ9900     -0.2865 
      14 O5         2.3214    2.6130    2.4894 O.2       1 YZ9900     -0.2442 
      15 C10       -2.2251   -1.4551    1.2806 C.ar      1 YZ9900      0.0422 
      16 C9         0.2603    2.7337    1.3712 C.ar      1 YZ9900      0.1515 
      17 C8        -1.2122   -2.0999    2.0001 C.ar      1 YZ9900      0.1988 
      18 H31        3.7934    6.2174    1.1728 H         1 YZ9900      0.0000 
      19 H32        3.0457    7.8168    1.3756 H         1 YZ9900      0.0000 
      20 H33        2.9979    6.6387    2.7051 H         1 YZ9900      0.0000 
      21 H112       1.6189    6.3202    0.0080 H         1 YZ9900      0.0000 
      22 H113       0.8183    6.7624    1.5316 H         1 YZ9900      0.0000 
      23 H6        -2.8910    0.3866    0.3961 H         1 YZ9900      0.0000 
      24 H5        -1.6201    2.5397    0.4392 H         1 YZ9900      0.0000 
      25 H4         0.7070   -1.8605    2.9393 H         1 YZ9900      0.0000 
      26 HO4       -0.4975   -3.7075    2.8215 H         1 YZ9900      0.0000 
      27 H10       -3.1106   -1.9902    0.9705 H         1 YZ9900      0.0000 
@<TRIPOS>BOND
       1       13       17 1        
       2        7       17 ar       
       3        7       10 ar       
       4        8       10 ar       
       5        8       11 ar       
       6       14       11 2        
       7       17       15 ar       
       8       10        9 ar       
       9       11       16 ar       
      10        2        4 1        
      11        2        1 1        
      12       15        5 ar       
      13        9        5 ar       
      14        9        6 ar       
      15       16        6 ar       
      16       16       12 1        
      17        4       12 1        
      18       12        3 2        
      19       18        1 1        
      20       19        1 1        
      21       20        1 1        
      22       21        2 1        
      23       22        2 1        
      24       23        5 1        
      25       24        6 1        
      26       25        7 1        
      27       26       13 1        
      28       27       15 1        
@<TRIPOS>SUBSTRUCTURE
 1 YZ9900 10 RESIDUE 4 A YZ9900 0 ROOT

