#        scan_R01_S0025_C0000_L00001_S0001_C0003_G0010_E0001.mol2
#        Mon Jun 19 14:13:16 2017
#        Descriptor:      9     1    24     2     3     4
#        Energy - RMSD - RMSD MassCentre:     -38.9271    999.9999    999.9999
#        Receptor:       1  Surface Point:    25  Conformer:     0
#        Ligand:         1  Surface Point:     1  Conformer:     3
#        BUDE Formal Charge: 0
#        ATOM Count: 27
#        Heavy ATOM Count: 17
@<TRIPOS>MOLECULE
pdb1gcz_ligA.pdb_scan_R01_S0025_C0000_L00001_S0001_C0003_G0010_E0001
27 28 1 0 0
SMALL
GASTEIGER
@<TRIPOS>ATOM
       1 C3         0.6274    7.5844   -0.2962 C.3       1 YZ9900      0.0513 
       2 C11        1.4046    7.2527    0.9744 C.3       1 YZ9900      0.2089 
       3 O1        -0.8201    5.8985    1.3326 O.2       1 YZ9900     -0.2447 
       4 O2         1.3805    5.8395    1.1916 O.3       1 YZ9900     -0.4453 
       5 C6        -2.3446    1.0553    2.1755 C.ar      1 YZ9900      0.0063 
       6 C5        -1.0731    3.1726    1.7658 C.ar      1 YZ9900      0.0160 
       7 C4         0.0262   -0.4066    2.2370 C.ar      1 YZ9900      0.0796 
       8 O3         1.3012    1.6006    1.8437 O.2       1 YZ9900     -0.4208 
       9 C2        -1.1225    1.7108    1.9922 C.ar      1 YZ9900      0.0353 
      10 C1         0.0689    0.9763    2.0230 C.ar      1 YZ9900      0.1519 
      11 C7         1.3425    2.9766    1.6310 C.ar      1 YZ9900      0.3521 
      12 C12        0.1803    5.2457    1.3640 C.2       1 YZ9900      0.3476 
      13 O4        -1.1851   -2.4224    2.6271 O.3       1 YZ9900     -0.2865 
      14 O5         2.4319    3.5035    1.4763 O.2       1 YZ9900     -0.2442 
      15 C10       -2.3815   -0.3279    2.3891 C.ar      1 YZ9900      0.0422 
      16 C9         0.1037    3.7855    1.5920 C.ar      1 YZ9900      0.1515 
      17 C8        -1.1938   -1.0681    2.4210 C.ar      1 YZ9900      0.1988 
      18 H31       -0.4060    7.2631   -0.1828 H         1 YZ9900      0.0000 
      19 H32        0.6570    8.6582   -0.4688 H         1 YZ9900      0.0000 
      20 H33        1.0778    7.0681   -1.1413 H         1 YZ9900      0.0000 
      21 H112       0.9467    7.7572    1.8225 H         1 YZ9900      0.0000 
      22 H113       2.4351    7.5849    0.8670 H         1 YZ9900      0.0000 
      23 H6        -3.2677    1.6154    2.1530 H         1 YZ9900      0.0000 
      24 H5        -1.9977    3.7303    1.7438 H         1 YZ9900      0.0000 
      25 H4         0.9480   -0.9691    2.2600 H         1 YZ9900      0.0000 
      26 HO4       -0.2806   -2.7720    2.6007 H         1 YZ9900      0.0000 
      27 H10       -3.3380   -0.8098    2.5278 H         1 YZ9900      0.0000 
@<TRIPOS>BOND
       1       13       17 1        
       2        7       17 ar       
       3        7       10 ar       
       4        8       10 ar       
       5        8       11 ar       
       6       14       11 2        
       7       17       15 ar       
       8       10        9 ar       
       9       11       16 ar       
      10        2        4 1        
      11        2        1 1        
      12       15        5 ar       
      13        9        5 ar       
      14        9        6 ar       
      15       16        6 ar       
      16       16       12 1        
      17        4       12 1        
      18       12        3 2        
      19       18        1 1        
      20       19        1 1        
      21       20        1 1        
      22       21        2 1        
      23       22        2 1        
      24       23        5 1        
      25       24        6 1        
      26       25        7 1        
      27       26       13 1        
      28       27       15 1        
@<TRIPOS>SUBSTRUCTURE
 1 YZ9900 10 RESIDUE 4 A YZ9900 0 ROOT

