#        scan_R01_S0026_C0000_L00001_S0001_C0000_G0010_E0001.mol2
#        Mon Jun 19 14:41:36 2017
#        Descriptor:      3    25    20     1     1     4
#        Energy - RMSD - RMSD MassCentre:     -38.2581    999.9999    999.9999
#        Receptor:       1  Surface Point:    26  Conformer:     0
#        Ligand:         1  Surface Point:     1  Conformer:     0
#        BUDE Formal Charge: 0
#        ATOM Count: 27
#        Heavy ATOM Count: 17
@<TRIPOS>MOLECULE
pdb1gcz_ligA.pdb_scan_R01_S0026_C0000_L00001_S0001_C0000_G0010_E0001
27 28 1 0 0
SMALL
GASTEIGER
@<TRIPOS>ATOM
       1 C3        -0.4060    3.2499   -0.7606 C.3       1 YZ9900      0.0513 
       2 C11        0.0967    2.5522    0.4708 C.3       1 YZ9900      0.2089 
       3 O1        -3.0980    1.6968    1.3471 O.2       1 YZ9900     -0.2447 
       4 O2        -0.9905    2.4814    1.4776 O.3       1 YZ9900     -0.4453 
       5 C6        -2.3663   -3.5005    1.3801 C.ar      1 YZ9900      0.0063 
       6 C5        -2.2688   -0.9856    1.5408 C.ar      1 YZ9900      0.0160 
       7 C4        -0.0473   -3.6704    3.1755 C.ar      1 YZ9900      0.0796 
       8 O3        -0.0478   -1.2658    3.2589 O.2       1 YZ9900     -0.4208 
       9 C2        -1.7487   -2.3400    1.9041 C.ar      1 YZ9900      0.0353 
      10 C1        -0.6220   -2.4430    2.7765 C.ar      1 YZ9900      0.1519 
      11 C7        -0.4416   -0.0657    2.8980 C.ar      1 YZ9900      0.3521 
      12 C12       -1.9426    1.5053    1.5764 C.2       1 YZ9900      0.3476 
      13 O4        -0.2438   -6.0367    2.9221 O.3       1 YZ9900     -0.2865 
      14 O5         0.1330    0.8581    3.3165 O.2       1 YZ9900     -0.2442 
      15 C10       -1.8229   -4.7650    1.7502 C.ar      1 YZ9900      0.0422 
      16 C9        -1.5788    0.1095    1.9853 C.ar      1 YZ9900      0.1515 
      17 C8        -0.7068   -4.8125    2.6160 C.ar      1 YZ9900      0.1988 
      18 H31       -1.2646    2.7097   -1.1599 H         1 YZ9900      0.0000 
      19 H32       -0.7036    4.2671   -0.5057 H         1 YZ9900      0.0000 
      20 H33        0.3851    3.2797   -1.5098 H         1 YZ9900      0.0000 
      21 H112       0.9390    3.1070    0.8842 H         1 YZ9900      0.0000 
      22 H113       0.4181    1.5435    0.2114 H         1 YZ9900      0.0000 
      23 H6        -3.2199   -3.4304    0.7225 H         1 YZ9900      0.0000 
      24 H5        -3.1627   -0.8750    0.9450 H         1 YZ9900      0.0000 
      25 H4         0.8041   -3.7406    3.8363 H         1 YZ9900      0.0000 
      26 HO4        0.1855   -6.4185    2.1530 H         1 YZ9900      0.0000 
      27 H10       -2.2596   -5.6779    1.3728 H         1 YZ9900      0.0000 
@<TRIPOS>BOND
       1       13       17 1        
       2        7       17 ar       
       3        7       10 ar       
       4        8       10 ar       
       5        8       11 ar       
       6       14       11 2        
       7       17       15 ar       
       8       10        9 ar       
       9       11       16 ar       
      10        2        4 1        
      11        2        1 1        
      12       15        5 ar       
      13        9        5 ar       
      14        9        6 ar       
      15       16        6 ar       
      16       16       12 1        
      17        4       12 1        
      18       12        3 2        
      19       18        1 1        
      20       19        1 1        
      21       20        1 1        
      22       21        2 1        
      23       22        2 1        
      24       23        5 1        
      25       24        6 1        
      26       25        7 1        
      27       26       13 1        
      28       27       15 1        
@<TRIPOS>SUBSTRUCTURE
 1 YZ9900 10 RESIDUE 4 A YZ9900 0 ROOT

