#        scan_R01_S0026_C0000_L00001_S0001_C0000_G0010_E0001.mol2
#        Mon Jun 19 14:13:17 2017
#        Descriptor:      8     7    25     1     1     4
#        Energy - RMSD - RMSD MassCentre:     -37.0799    999.9999    999.9999
#        Receptor:       1  Surface Point:    26  Conformer:     0
#        Ligand:         1  Surface Point:     1  Conformer:     0
#        BUDE Formal Charge: 0
#        ATOM Count: 27
#        Heavy ATOM Count: 17
@<TRIPOS>MOLECULE
pdb1gcz_ligA.pdb_scan_R01_S0026_C0000_L00001_S0001_C0000_G0010_E0001
27 28 1 0 0
SMALL
GASTEIGER
@<TRIPOS>ATOM
       1 C3        -4.1210   -4.5705    3.8831 C.3       1 YZ9900      0.0513 
       2 C11       -2.9625   -4.3781    2.9468 C.3       1 YZ9900      0.2089 
       3 O1        -4.4151   -1.5635    1.6532 O.2       1 YZ9900     -0.2447 
       4 O2        -3.3972   -3.5688    1.7820 O.3       1 YZ9900     -0.4453 
       5 C6        -0.5226    1.7509    2.8416 C.ar      1 YZ9900      0.0063 
       6 C5        -2.0367   -0.1565    2.1865 C.ar      1 YZ9900      0.0160 
       7 C4         1.7381    0.3320    1.6144 C.ar      1 YZ9900      0.0796 
       8 O3         0.2042   -1.4293    1.0368 O.2       1 YZ9900     -0.4208 
       9 C2        -0.6884    0.4897    2.2213 C.ar      1 YZ9900      0.0353 
      10 C1         0.4233   -0.1846    1.6292 C.ar      1 YZ9900      0.1519 
      11 C7        -0.9543   -2.0483    1.0564 C.ar      1 YZ9900      0.3521 
      12 C12       -3.4094   -2.2042    1.7013 C.2       1 YZ9900      0.3476 
      13 O4         3.0596    2.1962    2.3081 O.3       1 YZ9900     -0.2865 
      14 O5        -1.0272   -3.1086    0.5778 O.2       1 YZ9900     -0.2442 
      15 C10        0.7860    2.3155    2.8559 C.ar      1 YZ9900      0.0422 
      16 C9        -2.1317   -1.4204    1.6702 C.ar      1 YZ9900      0.1515 
      17 C8         1.8523    1.6076    2.2566 C.ar      1 YZ9900      0.1988 
      18 H31       -4.4917   -3.5982    4.2080 H         1 YZ9900      0.0000 
      19 H32       -4.9172   -5.1095    3.3696 H         1 YZ9900      0.0000 
      20 H33       -3.7953   -5.1438    4.7510 H         1 YZ9900      0.0000 
      21 H112      -2.6087   -5.3499    2.6022 H         1 YZ9900      0.0000 
      22 H113      -2.1561   -3.8616    3.4676 H         1 YZ9900      0.0000 
      23 H6        -1.3588    2.2677    3.2887 H         1 YZ9900      0.0000 
      24 H5        -2.9099    0.3590    2.5579 H         1 YZ9900      0.0000 
      25 H4         2.5736   -0.1831    1.1639 H         1 YZ9900      0.0000 
      26 HO4        3.3906    2.1703    3.2088 H         1 YZ9900      0.0000 
      27 H10        0.9610    3.2749    3.3202 H         1 YZ9900      0.0000 
@<TRIPOS>BOND
       1       13       17 1        
       2        7       17 ar       
       3        7       10 ar       
       4        8       10 ar       
       5        8       11 ar       
       6       14       11 2        
       7       17       15 ar       
       8       10        9 ar       
       9       11       16 ar       
      10        2        4 1        
      11        2        1 1        
      12       15        5 ar       
      13        9        5 ar       
      14        9        6 ar       
      15       16        6 ar       
      16       16       12 1        
      17        4       12 1        
      18       12        3 2        
      19       18        1 1        
      20       19        1 1        
      21       20        1 1        
      22       21        2 1        
      23       22        2 1        
      24       23        5 1        
      25       24        6 1        
      26       25        7 1        
      27       26       13 1        
      28       27       15 1        
@<TRIPOS>SUBSTRUCTURE
 1 YZ9900 10 RESIDUE 4 A YZ9900 0 ROOT

