#        scan_R01_S0026_C0000_L00001_S0001_C0002_G0010_E0001.mol2
#        Mon Jun 19 14:41:36 2017
#        Descriptor:      8    18    24     2     1     4
#        Energy - RMSD - RMSD MassCentre:     -41.1593    999.9999    999.9999
#        Receptor:       1  Surface Point:    26  Conformer:     0
#        Ligand:         1  Surface Point:     1  Conformer:     2
#        BUDE Formal Charge: 0
#        ATOM Count: 27
#        Heavy ATOM Count: 17
@<TRIPOS>MOLECULE
pdb1gcz_ligA.pdb_scan_R01_S0026_C0000_L00001_S0001_C0002_G0010_E0001
27 28 1 0 0
SMALL
GASTEIGER
@<TRIPOS>ATOM
       1 C3        -4.4165   -6.9232    1.7658 C.3       1 YZ9900      0.0513 
       2 C11       -4.7223   -5.4356    1.6169 C.3       1 YZ9900      0.2089 
       3 O1        -4.6383   -2.8136    1.4433 O.2       1 YZ9900     -0.2447 
       4 O2        -3.5101   -4.6864    1.7367 O.3       1 YZ9900     -0.4453 
       5 C6        -1.1898    1.0007    1.6647 C.ar      1 YZ9900      0.0063 
       6 C5        -2.4012   -1.1901    1.6471 C.ar      1 YZ9900      0.0160 
       7 C4         1.2368   -0.2962    2.1023 C.ar      1 YZ9900      0.0796 
       8 O3         0.1224   -2.4333    2.0949 O.2       1 YZ9900     -0.4208 
       9 C2        -1.1594   -0.3940    1.7677 C.ar      1 YZ9900      0.0353 
      10 C1         0.0599   -1.0458    1.9877 C.ar      1 YZ9900      0.1519 
      11 C7        -1.0492   -3.1781    1.9806 C.ar      1 YZ9900      0.3521 
      12 C12       -3.5833   -3.3425    1.6311 C.2       1 YZ9900      0.3476 
      13 O4         2.3898    1.7902    2.1189 O.3       1 YZ9900     -0.2865 
      14 O5        -0.9724   -4.3918    2.0775 O.2       1 YZ9900     -0.2442 
      15 C10       -0.0099    1.7455    1.7801 C.ar      1 YZ9900      0.0422 
      16 C9        -2.3561   -2.5237    1.7481 C.ar      1 YZ9900      0.1515 
      17 C8         1.2125    1.0998    2.0000 C.ar      1 YZ9900      0.1988 
      18 H31       -3.9839   -7.1074    2.7471 H         1 YZ9900      0.0000 
      19 H32       -5.3368   -7.4940    1.6615 H         1 YZ9900      0.0000 
      20 H33       -3.7113   -7.2268    0.9950 H         1 YZ9900      0.0000 
      21 H112      -5.4166   -5.1276    2.3959 H         1 YZ9900      0.0000 
      22 H113      -5.1665   -5.2519    0.6410 H         1 YZ9900      0.0000 
      23 H6        -2.1267    1.5104    1.4950 H         1 YZ9900      0.0000 
      24 H5        -3.3368   -0.6778    1.4775 H         1 YZ9900      0.0000 
      25 H4         2.1751   -0.8035    2.2720 H         1 YZ9900      0.0000 
      26 HO4        3.1310    1.1870    2.2853 H         1 YZ9900      0.0000 
      27 H10       -0.0607    2.8211    1.6967 H         1 YZ9900      0.0000 
@<TRIPOS>BOND
       1       13       17 1        
       2        7       17 ar       
       3        7       10 ar       
       4        8       10 ar       
       5        8       11 ar       
       6       14       11 2        
       7       17       15 ar       
       8       10        9 ar       
       9       11       16 ar       
      10        2        4 1        
      11        2        1 1        
      12       15        5 ar       
      13        9        5 ar       
      14        9        6 ar       
      15       16        6 ar       
      16       16       12 1        
      17        4       12 1        
      18       12        3 2        
      19       18        1 1        
      20       19        1 1        
      21       20        1 1        
      22       21        2 1        
      23       22        2 1        
      24       23        5 1        
      25       24        6 1        
      26       25        7 1        
      27       26       13 1        
      28       27       15 1        
@<TRIPOS>SUBSTRUCTURE
 1 YZ9900 10 RESIDUE 4 A YZ9900 0 ROOT

