#        1GCZ_R01_S0001_C0000_L00004_S0001_C0007_G0010_E0001.mol2
#        Tue Jun  6 09:55:25 2017
#        Descriptor:      1    19     3     9     7    15
#        Energy - RMSD - RMSD MassCentre:     -56.5386    999.9999    999.9999
#        Receptor:       1  Surface Point:     1  Conformer:     0
#        Ligand:         4  Surface Point:     1  Conformer:     7
#        BUDE Formal Charge: 0
#        ATOM Count: 46
#        Heavy ATOM Count: 28
@<TRIPOS>MOLECULE
ZINC61563277_1GCZ_R01_S0001_C0000_L00004_S0001_C0007_G0010_E0001
 46 49 0 0 0
SMALL
USER_CHARGES
@<TRIPOS>ATOM
       1 C1        -3.3634   -0.6605    4.4618 C.3       1 <0>        -0.1051 
       2 C2        -1.9447   -0.1653    4.6103 C.2       1 <0>         0.1324 
       3 C3        -1.0641    0.0074    3.6153 C.2       1 <0>        -0.1714 
       4 C4         0.2189    0.4996    4.2246 C.ar      1 <0>        -0.0773 
       5 C5         1.4859    0.8276    3.7275 C.ar      1 <0>        -0.0675 
       6 C6         2.4149    1.3074    4.6586 C.ar      1 <0>        -0.1361 
       7 C7         2.0597    1.4854    6.0021 C.ar      1 <0>        -0.0920 
       8 C8         0.7834    1.1612    6.4779 C.ar      1 <0>        -0.1265 
       9 C9        -0.1321    0.6060    5.5757 C.ar      1 <0>         0.1084 
      10 N1        -1.3888    0.1496    5.7625 N.pl3     1 <0>        -0.4675 
      11 C10       -2.0529    0.0519    7.0802 C.3       1 <0>         0.1242 
      12 C11       -1.6163   -1.2172    7.7719 C.2       1 <0>         0.4463 
      13 O1        -0.9671   -1.1584    8.7734 O.2       1 <0>        -0.4704 
      14 O2        -1.9597   -2.4178    7.2586 O.3       1 <0>        -0.3437 
      15 C12       -1.5233   -3.5919    7.9486 C.3       1 <0>         0.1567 
      16 C13       -0.0143   -3.6450    7.9452 C.2       1 <0>         0.2874 
      17 N2         0.9215   -3.5702    8.8732 N.2       1 <0>        -0.5106 
      18 C14        2.1862   -3.6907    8.2849 C.2       1 <0>         0.2609 
      19 N3         2.0397   -3.8256    7.0205 N.2       1 <0>        -0.3200 
      20 O3         0.6682   -3.7972    6.7404 O.3       1 <0>        -0.0928 
      21 C15        3.5080   -3.6821    9.0149 C.3       1 <0>         0.0037 
      22 C16        4.0436   -2.2713    9.0678 C.ar      1 <0>        -0.0973 
      23 C17        4.8807   -1.7906    8.0538 C.ar      1 <0>        -0.0995 
      24 C18        5.3608   -0.4760    8.0891 C.ar      1 <0>        -0.1207 
      25 C19        5.0258    0.3652    9.1525 C.ar      1 <0>        -0.1122 
      26 C20        4.1982   -0.1119   10.1758 C.ar      1 <0>        -0.1201 
      27 C21        3.7184   -1.4267   10.1360 C.ar      1 <0>        -0.1046 
      28 Br1       -1.3357   -0.2810    1.7776 Br        1 <0>        -0.0155 
      29 H1        -4.0518    0.0978    4.8290 H         1 <0>         0.0903 
      30 H2        -3.4898   -1.5750    5.0372 H         1 <0>         0.0953 
      31 H3        -3.5692   -0.8600    3.4122 H         1 <0>         0.0712 
      32 H4         1.7582    0.7278    2.6871 H         1 <0>         0.1274 
      33 H5         3.4073    1.5568    4.3135 H         1 <0>         0.1276 
      34 H6         2.7813    1.8882    6.6975 H         1 <0>         0.1296 
      35 H7         0.5562    1.3614    7.5145 H         1 <0>         0.1206 
      36 H8        -3.1319    0.0357    6.9415 H         1 <0>         0.1394 
      37 H9        -1.7791    0.9106    7.6897 H         1 <0>         0.1404 
      38 H10       -1.9190   -4.4736    7.4487 H         1 <0>         0.1240 
      39 H11       -1.8835   -3.5636    8.9748 H         1 <0>         0.1139 
      40 H12        4.2157   -4.3200    8.4898 H         1 <0>         0.1085 
      41 H13        3.3648   -4.0545   10.0272 H         1 <0>         0.1144 
      42 H14        5.1688   -2.4320    7.2342 H         1 <0>         0.1277 
      43 H15        6.0023   -0.1164    7.2982 H         1 <0>         0.1259 
      44 H16        5.3910    1.3811    9.1850 H         1 <0>         0.1247 
      45 H17        3.9313    0.5363   10.9973 H         1 <0>         0.1255 
      46 H18        3.0951   -1.7840   10.9423 H         1 <0>         0.1245 
@<TRIPOS>BOND
       1        1        2 1        
       2        1       29 1        
       3        1       30 1        
       4        1       31 1        
       5        2       10 1        
       6        2        3 2        
       7        3        4 1        
       8        3       28 1        
       9        4        9 ar       
      10        4        5 ar       
      11        5        6 ar       
      12        5       32 1        
      13        6        7 ar       
      14        6       33 1        
      15        7        8 ar       
      16        7       34 1        
      17        8        9 ar       
      18        8       35 1        
      19        9       10 1        
      20       10       11 1        
      21       11       12 1        
      22       11       36 1        
      23       11       37 1        
      24       12       13 2        
      25       12       14 1        
      26       14       15 1        
      27       15       16 1        
      28       15       38 1        
      29       15       39 1        
      30       16       20 1        
      31       16       17 2        
      32       17       18 1        
      33       18       19 2        
      34       18       21 1        
      35       19       20 1        
      36       21       22 1        
      37       21       40 1        
      38       21       41 1        
      39       22       27 ar       
      40       22       23 ar       
      41       23       24 ar       
      42       23       42 1        
      43       24       25 ar       
      44       24       43 1        
      45       25       26 ar       
      46       25       44 1        
      47       26       27 ar       
      48       26       45 1        
      49       27       46 1        

