#        scan_R01_S0026_C0000_L00001_S0001_C0002_G0010_E0001.mol2
#        Mon Jun 19 14:13:17 2017
#        Descriptor:      9     1     4     2     3     4
#        Energy - RMSD - RMSD MassCentre:     -42.5371    999.9999    999.9999
#        Receptor:       1  Surface Point:    26  Conformer:     0
#        Ligand:         1  Surface Point:     1  Conformer:     2
#        BUDE Formal Charge: 0
#        ATOM Count: 27
#        Heavy ATOM Count: 17
@<TRIPOS>MOLECULE
pdb1gcz_ligA.pdb_scan_R01_S0026_C0000_L00001_S0001_C0002_G0010_E0001
27 28 1 0 0
SMALL
GASTEIGER
@<TRIPOS>ATOM
       1 C3        -4.9739   -4.3365    0.8053 C.3       1 YZ9900      0.0513 
       2 C11       -3.4585   -4.3952    0.9744 C.3       1 YZ9900      0.2089 
       3 O1        -0.9047   -3.8836    1.3326 O.2       1 YZ9900     -0.2447 
       4 O2        -2.9525   -3.0755    1.1916 O.3       1 YZ9900     -0.4453 
       5 C6         2.1843    0.1462    2.1755 C.ar      1 YZ9900      0.0063 
       6 C5         0.2653   -1.4086    1.7658 C.ar      1 YZ9900      0.0160 
       7 C4         0.4565    2.3307    2.2370 C.ar      1 YZ9900      0.0796 
       8 O3        -1.4282    0.8807    1.8437 O.2       1 YZ9900     -0.4208 
       9 C2         0.8116   -0.0519    1.9922 C.ar      1 YZ9900      0.0353 
      10 C1        -0.0566    1.0458    2.0230 C.ar      1 YZ9900      0.1519 
      11 C7        -1.9375   -0.3983    1.6310 C.ar      1 YZ9900      0.3521 
      12 C12       -1.6216   -2.9280    1.3640 C.2       1 YZ9900      0.3476 
      13 O4         2.2841    3.8107    2.6271 O.3       1 YZ9900     -0.2865 
      14 O5        -3.1415   -0.5208    1.4763 O.2       1 YZ9900     -0.2442 
      15 C10        2.6920    1.4333    2.3891 C.ar      1 YZ9900      0.0422 
      16 C9        -1.0502   -1.5820    1.5920 C.ar      1 YZ9900      0.1515 
      17 C8         1.8291    2.5350    2.4210 C.ar      1 YZ9900      0.1988 
      18 H31       -5.2183   -3.7190   -0.0567 H         1 YZ9900      0.0000 
      19 H32       -5.3604   -5.3420    0.6532 H         1 YZ9900      0.0000 
      20 H33       -5.4215   -3.9065    1.6988 H         1 YZ9900      0.0000 
      21 H112      -3.0084   -4.8121    0.0757 H         1 YZ9900      0.0000 
      22 H113      -3.2123   -5.0225    1.8285 H         1 YZ9900      0.0000 
      23 H6         2.8601   -0.6959    2.1530 H         1 YZ9900      0.0000 
      24 H5         0.9434   -2.2489    1.7438 H         1 YZ9900      0.0000 
      25 H4        -0.2173    3.1745    2.2600 H         1 YZ9900      0.0000 
      26 HO4        1.5538    4.4486    2.6007 H         1 YZ9900      0.0000 
      27 H10        3.7557    1.5590    2.5278 H         1 YZ9900      0.0000 
@<TRIPOS>BOND
       1       13       17 1        
       2        7       17 ar       
       3        7       10 ar       
       4        8       10 ar       
       5        8       11 ar       
       6       14       11 2        
       7       17       15 ar       
       8       10        9 ar       
       9       11       16 ar       
      10        2        4 1        
      11        2        1 1        
      12       15        5 ar       
      13        9        5 ar       
      14        9        6 ar       
      15       16        6 ar       
      16       16       12 1        
      17        4       12 1        
      18       12        3 2        
      19       18        1 1        
      20       19        1 1        
      21       20        1 1        
      22       21        2 1        
      23       22        2 1        
      24       23        5 1        
      25       24        6 1        
      26       25        7 1        
      27       26       13 1        
      28       27       15 1        
@<TRIPOS>SUBSTRUCTURE
 1 YZ9900 10 RESIDUE 4 A YZ9900 0 ROOT

