#        scan_R01_S0026_C0000_L00001_S0001_C0003_G0010_E0001.mol2
#        Mon Jun 19 14:13:18 2017
#        Descriptor:     28     1     5     2     1     4
#        Energy - RMSD - RMSD MassCentre:     -39.7198    999.9999    999.9999
#        Receptor:       1  Surface Point:    26  Conformer:     0
#        Ligand:         1  Surface Point:     1  Conformer:     3
#        BUDE Formal Charge: 0
#        ATOM Count: 27
#        Heavy ATOM Count: 17
@<TRIPOS>MOLECULE
pdb1gcz_ligA.pdb_scan_R01_S0026_C0000_L00001_S0001_C0003_G0010_E0001
27 28 1 0 0
SMALL
GASTEIGER
@<TRIPOS>ATOM
       1 C3        -6.1018   -4.3889    2.5521 C.3       1 YZ9900      0.0513 
       2 C11       -5.4054   -4.5016    1.1989 C.3       1 YZ9900      0.2089 
       3 O1        -4.9073   -2.0054    1.8569 O.2       1 YZ9900     -0.2447 
       4 O2        -4.0804   -3.9733    1.3003 O.3       1 YZ9900     -0.4453 
       5 C6        -0.8718    1.1082    2.5713 C.ar      1 YZ9900      0.0063 
       6 C5        -2.4239   -0.7999    2.1048 C.ar      1 YZ9900      0.0160 
       7 C4         1.3385   -0.5106    2.0657 C.ar      1 YZ9900      0.0796 
       8 O3        -0.1086   -2.3825    1.6058 O.2       1 YZ9900     -0.4208 
       9 C2        -1.0620   -0.2313    2.2157 C.ar      1 YZ9900      0.0353 
      10 C1         0.0486   -1.0448    1.9617 C.ar      1 YZ9900      0.1519 
      11 C7        -1.3924   -2.9129    1.5027 C.ar      1 YZ9900      0.3521 
      12 C12       -3.9408   -2.6758    1.6460 C.2       1 YZ9900      0.3476 
      13 O4         2.8160    1.3067    2.5100 O.3       1 YZ9900     -0.2865 
      14 O5        -1.5078   -4.0864    1.1897 O.2       1 YZ9900     -0.2442 
      15 C10        0.4204    1.6373    2.6738 C.ar      1 YZ9900      0.0422 
      16 C9        -2.5898   -2.0832    1.7638 C.ar      1 YZ9900      0.1515 
      17 C8         1.5350    0.8291    2.4210 C.ar      1 YZ9900      0.1988 
      18 H31       -6.1612   -3.3420    2.8425 H         1 YZ9900      0.0000 
      19 H32       -7.1051   -4.8031    2.4784 H         1 YZ9900      0.0000 
      20 H33       -5.5346   -4.9414    3.2982 H         1 YZ9900      0.0000 
      21 H112      -5.9639   -3.9379    0.4548 H         1 YZ9900      0.0000 
      22 H113      -5.3565   -5.5470    0.9015 H         1 YZ9900      0.0000 
      23 H6        -1.7238    1.7418    2.7687 H         1 YZ9900      0.0000 
      24 H5        -3.2742   -0.1640    2.3028 H         1 YZ9900      0.0000 
      25 H4         2.1923   -1.1422    1.8687 H         1 YZ9900      0.0000 
      26 HO4        3.4613    0.6078    2.3198 H         1 YZ9900      0.0000 
      27 H10        0.5399    2.6746    2.9499 H         1 YZ9900      0.0000 
@<TRIPOS>BOND
       1       13       17 1        
       2        7       17 ar       
       3        7       10 ar       
       4        8       10 ar       
       5        8       11 ar       
       6       14       11 2        
       7       17       15 ar       
       8       10        9 ar       
       9       11       16 ar       
      10        2        4 1        
      11        2        1 1        
      12       15        5 ar       
      13        9        5 ar       
      14        9        6 ar       
      15       16        6 ar       
      16       16       12 1        
      17        4       12 1        
      18       12        3 2        
      19       18        1 1        
      20       19        1 1        
      21       20        1 1        
      22       21        2 1        
      23       22        2 1        
      24       23        5 1        
      25       24        6 1        
      26       25        7 1        
      27       26       13 1        
      28       27       15 1        
@<TRIPOS>SUBSTRUCTURE
 1 YZ9900 10 RESIDUE 4 A YZ9900 0 ROOT

