#        scan_R01_S0027_C0000_L00001_S0001_C0002_G0010_E0001.mol2
#        Mon Jun 19 14:13:19 2017
#        Descriptor:     25     4    35     2     3     5
#        Energy - RMSD - RMSD MassCentre:     -35.9698    999.9999    999.9999
#        Receptor:       1  Surface Point:    27  Conformer:     0
#        Ligand:         1  Surface Point:     1  Conformer:     2
#        BUDE Formal Charge: 0
#        ATOM Count: 27
#        Heavy ATOM Count: 17
@<TRIPOS>MOLECULE
pdb1gcz_ligA.pdb_scan_R01_S0027_C0000_L00001_S0001_C0002_G0010_E0001
27 28 1 0 0
SMALL
GASTEIGER
@<TRIPOS>ATOM
       1 C3        -5.1543    2.7308   -2.0082 C.3       1 YZ9900      0.0513 
       2 C11       -3.9261    3.4966   -1.5249 C.3       1 YZ9900      0.2089 
       3 O1        -1.7305    4.3170   -0.3340 O.2       1 YZ9900     -0.2447 
       4 O2        -3.2401    2.7216   -0.5381 O.3       1 YZ9900     -0.4453 
       5 C6         1.6278    2.6846    3.2083 C.ar      1 YZ9900      0.0063 
       6 C5        -0.2631    2.9686    1.5923 C.ar      1 YZ9900      0.0160 
       7 C4         0.6636    0.1819    3.9621 C.ar      1 YZ9900      0.0796 
       8 O3        -1.1777    0.4018    2.4225 O.2       1 YZ9900     -0.4208 
       9 C2         0.4636    2.1843    2.6156 C.ar      1 YZ9900      0.0353 
      10 C1        -0.0210    0.9268    2.9944 C.ar      1 YZ9900      0.1519 
      11 C7        -1.8580    1.1438    1.4597 C.ar      1 YZ9900      0.3521 
      12 C12       -2.1205    3.2408    0.0091 C.2       1 YZ9900      0.3476 
      13 O4         2.4643   -0.0881    5.5007 O.3       1 YZ9900     -0.2865 
      14 O5        -2.8686    0.6657    0.9714 O.2       1 YZ9900     -0.2442 
      15 C10        2.3085    1.9355    4.1755 C.ar      1 YZ9900      0.0422 
      16 C9        -1.3755    2.4767    1.0344 C.ar      1 YZ9900      0.1515 
      17 C8         1.8291    0.6773    4.5586 C.ar      1 YZ9900      0.1988 
      18 H31       -5.8248    2.5553   -1.1693 H         1 YZ9900      0.0000 
      19 H32       -5.6688    3.3147   -2.7685 H         1 YZ9900      0.0000 
      20 H33       -4.8436    1.7776   -2.4306 H         1 YZ9900      0.0000 
      21 H112      -4.2367    4.4440   -1.0894 H         1 YZ9900      0.0000 
      22 H113      -3.2607    3.6837   -2.3650 H         1 YZ9900      0.0000 
      23 H6         2.0075    3.6539    2.9210 H         1 YZ9900      0.0000 
      24 H5         0.1189    3.9377    1.3069 H         1 YZ9900      0.0000 
      25 H4         0.2859   -0.7879    4.2511 H         1 YZ9900      0.0000 
      26 HO4        1.9861   -0.9179    5.6542 H         1 YZ9900      0.0000 
      27 H10        3.2050    2.3445    4.6176 H         1 YZ9900      0.0000 
@<TRIPOS>BOND
       1       13       17 1        
       2        7       17 ar       
       3        7       10 ar       
       4        8       10 ar       
       5        8       11 ar       
       6       14       11 2        
       7       17       15 ar       
       8       10        9 ar       
       9       11       16 ar       
      10        2        4 1        
      11        2        1 1        
      12       15        5 ar       
      13        9        5 ar       
      14        9        6 ar       
      15       16        6 ar       
      16       16       12 1        
      17        4       12 1        
      18       12        3 2        
      19       18        1 1        
      20       19        1 1        
      21       20        1 1        
      22       21        2 1        
      23       22        2 1        
      24       23        5 1        
      25       24        6 1        
      26       25        7 1        
      27       26       13 1        
      28       27       15 1        
@<TRIPOS>SUBSTRUCTURE
 1 YZ9900 10 RESIDUE 4 A YZ9900 0 ROOT

