#        scan_R01_S0027_C0000_L00001_S0001_C0003_G0010_E0001.mol2
#        Mon Jun 19 14:41:38 2017
#        Descriptor:     12    15    12     1     3     4
#        Energy - RMSD - RMSD MassCentre:     -39.4961    999.9999    999.9999
#        Receptor:       1  Surface Point:    27  Conformer:     0
#        Ligand:         1  Surface Point:     1  Conformer:     3
#        BUDE Formal Charge: 0
#        ATOM Count: 27
#        Heavy ATOM Count: 17
@<TRIPOS>MOLECULE
pdb1gcz_ligA.pdb_scan_R01_S0027_C0000_L00001_S0001_C0003_G0010_E0001
27 28 1 0 0
SMALL
GASTEIGER
@<TRIPOS>ATOM
       1 C3        -2.8103    7.6800    0.9412 C.3       1 YZ9900      0.0513 
       2 C11       -2.4582    6.8859   -0.3134 C.3       1 YZ9900      0.2089 
       3 O1        -0.7043    5.9685    1.4171 O.2       1 YZ9900     -0.2447 
       4 O2        -2.3438    5.4994    0.0177 O.3       1 YZ9900     -0.4453 
       5 C6         0.7644    1.4862    3.4769 C.ar      1 YZ9900      0.0063 
       6 C5        -0.3295    3.3327    2.1880 C.ar      1 YZ9900      0.0160 
       7 C4        -0.9064   -0.3955    2.2815 C.ar      1 YZ9900      0.0796 
       8 O3        -1.9955    1.3420    1.0150 O.2       1 YZ9900     -0.4208 
       9 C2        -0.1929    1.9032    2.5460 C.ar      1 YZ9900      0.0353 
      10 C1        -1.0326    0.9577    1.9454 C.ar      1 YZ9900      0.1519 
      11 C7        -2.1202    2.6887    0.6813 C.ar      1 YZ9900      0.3521 
      12 C12       -1.4070    5.1392    0.9206 C.2       1 YZ9900      0.3476 
      13 O4         0.1357   -2.1533    3.5091 O.3       1 YZ9900     -0.2865 
      14 O5        -2.9697    3.0038   -0.1356 O.2       1 YZ9900     -0.2442 
      15 C10        0.8863    0.1317    3.8094 C.ar      1 YZ9900      0.0422 
      16 C9        -1.2502    3.7162    1.2958 C.ar      1 YZ9900      0.1515 
      17 C8         0.0498   -0.8187    3.2123 C.ar      1 YZ9900      0.1988 
      18 H31       -2.0209    7.5582    1.6801 H         1 YZ9900      0.0000 
      19 H32       -2.9105    8.7331    0.6868 H         1 YZ9900      0.0000 
      20 H33       -3.7499    7.3140    1.3495 H         1 YZ9900      0.0000 
      21 H112      -1.5116    7.2415   -0.7148 H         1 YZ9900      0.0000 
      22 H113      -3.2407    7.0169   -1.0578 H         1 YZ9900      0.0000 
      23 H6         1.4156    2.2100    3.9443 H         1 YZ9900      0.0000 
      24 H5         0.3230    4.0543    2.6570 H         1 YZ9900      0.0000 
      25 H4        -1.5564   -1.1213    1.8154 H         1 YZ9900      0.0000 
      26 HO4       -0.5289   -2.6618    3.0183 H         1 YZ9900      0.0000 
      27 H10        1.6335   -0.1639    4.5310 H         1 YZ9900      0.0000 
@<TRIPOS>BOND
       1       13       17 1        
       2        7       17 ar       
       3        7       10 ar       
       4        8       10 ar       
       5        8       11 ar       
       6       14       11 2        
       7       17       15 ar       
       8       10        9 ar       
       9       11       16 ar       
      10        2        4 1        
      11        2        1 1        
      12       15        5 ar       
      13        9        5 ar       
      14        9        6 ar       
      15       16        6 ar       
      16       16       12 1        
      17        4       12 1        
      18       12        3 2        
      19       18        1 1        
      20       19        1 1        
      21       20        1 1        
      22       21        2 1        
      23       22        2 1        
      24       23        5 1        
      25       24        6 1        
      26       25        7 1        
      27       26       13 1        
      28       27       15 1        
@<TRIPOS>SUBSTRUCTURE
 1 YZ9900 10 RESIDUE 4 A YZ9900 0 ROOT

