#        scan_R01_S0027_C0000_L00001_S0001_C0003_G0010_E0001.mol2
#        Mon Jun 19 14:13:19 2017
#        Descriptor:      7    14    18     2     3     5
#        Energy - RMSD - RMSD MassCentre:     -37.3630    999.9999    999.9999
#        Receptor:       1  Surface Point:    27  Conformer:     0
#        Ligand:         1  Surface Point:     1  Conformer:     3
#        BUDE Formal Charge: 0
#        ATOM Count: 27
#        Heavy ATOM Count: 17
@<TRIPOS>MOLECULE
pdb1gcz_ligA.pdb_scan_R01_S0027_C0000_L00001_S0001_C0003_G0010_E0001
27 28 1 0 0
SMALL
GASTEIGER
@<TRIPOS>ATOM
       1 C3        -4.9745    3.9993   -0.9089 C.3       1 YZ9900      0.0513 
       2 C11       -4.3000    2.7769   -1.5249 C.3       1 YZ9900      0.2089 
       3 O1        -2.2802    3.9662   -0.3340 O.2       1 YZ9900     -0.2447 
       4 O2        -3.4898    2.1328   -0.5381 O.3       1 YZ9900     -0.4453 
       5 C6         1.3105    2.9416    3.2083 C.ar      1 YZ9900      0.0063 
       6 C5        -0.6009    2.8931    1.5923 C.ar      1 YZ9900      0.0160 
       7 C4         0.7956    0.3095    3.9621 C.ar      1 YZ9900      0.0796 
       8 O3        -1.0559    0.2064    2.4225 O.2       1 YZ9900     -0.4208 
       9 C2         0.2509    2.2468    2.6156 C.ar      1 YZ9900      0.0353 
      10 C1        -0.0080    0.9242    2.9944 C.ar      1 YZ9900      0.1519 
      11 C7        -1.8547    0.8190    1.4597 C.ar      1 YZ9900      0.3521 
      12 C12       -2.4774    2.8386    0.0091 C.2       1 YZ9900      0.3476 
      13 O4         2.6158    0.3564    5.5007 O.3       1 YZ9900     -0.2865 
      14 O5        -2.7670    0.1726    0.9714 O.2       1 YZ9900     -0.2442 
      15 C10        2.1110    2.3221    4.1755 C.ar      1 YZ9900      0.0422 
      16 C9        -1.6111    2.2154    1.0344 C.ar      1 YZ9900      0.1515 
      17 C8         1.8574    0.9998    4.5586 C.ar      1 YZ9900      0.1988 
      18 H31       -4.2142    4.6982   -0.5664 H         1 YZ9900      0.0000 
      19 H32       -5.6014    4.4816   -1.6559 H         1 YZ9900      0.0000 
      20 H33       -5.5880    3.6880   -0.0661 H         1 YZ9900      0.0000 
      21 H112      -3.6750    3.0885   -2.3591 H         1 YZ9900      0.0000 
      22 H113      -5.0593    2.0828   -1.8790 H         1 YZ9900      0.0000 
      23 H6         1.5162    3.9622    2.9210 H         1 YZ9900      0.0000 
      24 H5        -0.3931    3.9137    1.3069 H         1 YZ9900      0.0000 
      25 H4         0.5920   -0.7110    4.2511 H         1 YZ9900      0.0000 
      26 HO4        2.2889   -0.5439    5.6542 H         1 YZ9900      0.0000 
      27 H10        2.9228    2.8806    4.6176 H         1 YZ9900      0.0000 
@<TRIPOS>BOND
       1       13       17 1        
       2        7       17 ar       
       3        7       10 ar       
       4        8       10 ar       
       5        8       11 ar       
       6       14       11 2        
       7       17       15 ar       
       8       10        9 ar       
       9       11       16 ar       
      10        2        4 1        
      11        2        1 1        
      12       15        5 ar       
      13        9        5 ar       
      14        9        6 ar       
      15       16        6 ar       
      16       16       12 1        
      17        4       12 1        
      18       12        3 2        
      19       18        1 1        
      20       19        1 1        
      21       20        1 1        
      22       21        2 1        
      23       22        2 1        
      24       23        5 1        
      25       24        6 1        
      26       25        7 1        
      27       26       13 1        
      28       27       15 1        
@<TRIPOS>SUBSTRUCTURE
 1 YZ9900 10 RESIDUE 4 A YZ9900 0 ROOT

