#        scan_R01_S0028_C0000_L00001_S0001_C0000_G0010_E0001.mol2
#        Mon Jun 19 14:41:39 2017
#        Descriptor:      1    33    15     1     2     4
#        Energy - RMSD - RMSD MassCentre:     -40.0995    999.9999    999.9999
#        Receptor:       1  Surface Point:    28  Conformer:     0
#        Ligand:         1  Surface Point:     1  Conformer:     0
#        BUDE Formal Charge: 0
#        ATOM Count: 27
#        Heavy ATOM Count: 17
@<TRIPOS>MOLECULE
pdb1gcz_ligA.pdb_scan_R01_S0028_C0000_L00001_S0001_C0000_G0010_E0001
27 28 1 0 0
SMALL
GASTEIGER
@<TRIPOS>ATOM
       1 C3        -1.6953    4.8880    0.7116 C.3       1 YZ9900      0.0513 
       2 C11       -0.7833    3.7166    0.4835 C.3       1 YZ9900      0.2089 
       3 O1        -0.8436    2.9605    3.8198 O.2       1 YZ9900     -0.2447 
       4 O2        -0.0762    3.3874    1.7455 O.3       1 YZ9900     -0.4453 
       5 C6        -2.7780   -1.8936    3.3253 C.ar      1 YZ9900      0.0063 
       6 C5        -1.6106    0.3354    3.1556 C.ar      1 YZ9900      0.0160 
       7 C4        -0.8566   -3.0071    1.4022 C.ar      1 YZ9900      0.0796 
       8 O3         0.1812   -0.8380    1.3184 O.2       1 YZ9900     -0.4208 
       9 C2        -1.7422   -1.1040    2.7717 C.ar      1 YZ9900      0.0353 
      10 C1        -0.8168   -1.6639    1.8382 C.ar      1 YZ9900      0.1519 
      11 C7         0.2734    0.4449    1.5854 C.ar      1 YZ9900      0.3521 
      12 C12       -0.5294    2.5646    2.7387 C.2       1 YZ9900      0.3476 
      13 O4        -2.0639   -5.0530    1.6451 O.3       1 YZ9900     -0.2865 
      14 O5         1.1123    1.0633    1.0636 O.2       1 YZ9900     -0.2442 
      15 C10       -2.8637   -3.2561    2.9161 C.ar      1 YZ9900      0.0422 
      16 C9        -0.6613    1.0875    2.5185 C.ar      1 YZ9900      0.1515 
      17 C8        -1.9237   -3.7613    1.9894 C.ar      1 YZ9900      0.1988 
      18 H31       -2.4086    4.6458    1.4996 H         1 YZ9900      0.0000 
      19 H32       -1.1054    5.7547    1.0098 H         1 YZ9900      0.0000 
      20 H33       -2.2334    5.1139   -0.2089 H         1 YZ9900      0.0000 
      21 H112      -0.0539    3.9686   -0.2864 H         1 YZ9900      0.0000 
      22 H113      -1.3700    2.8565    0.1608 H         1 YZ9900      0.0000 
      23 H6        -3.4793   -1.4781    4.0336 H         1 YZ9900      0.0000 
      24 H5        -2.2463    0.7688    3.9135 H         1 YZ9900      0.0000 
      25 H4        -0.1528   -3.4237    0.6969 H         1 YZ9900      0.0000 
      26 HO4       -2.8425   -5.1547    1.0928 H         1 YZ9900      0.0000 
      27 H10       -3.6393   -3.8962    3.3101 H         1 YZ9900      0.0000 
@<TRIPOS>BOND
       1       13       17 1        
       2        7       17 ar       
       3        7       10 ar       
       4        8       10 ar       
       5        8       11 ar       
       6       14       11 2        
       7       17       15 ar       
       8       10        9 ar       
       9       11       16 ar       
      10        2        4 1        
      11        2        1 1        
      12       15        5 ar       
      13        9        5 ar       
      14        9        6 ar       
      15       16        6 ar       
      16       16       12 1        
      17        4       12 1        
      18       12        3 2        
      19       18        1 1        
      20       19        1 1        
      21       20        1 1        
      22       21        2 1        
      23       22        2 1        
      24       23        5 1        
      25       24        6 1        
      26       25        7 1        
      27       26       13 1        
      28       27       15 1        
@<TRIPOS>SUBSTRUCTURE
 1 YZ9900 10 RESIDUE 4 A YZ9900 0 ROOT

