#        1GCZ_R01_S0001_C0000_L00004_S0001_C0007_G0010_E0001.mol2
#        Tue Jun  6 14:05:24 2017
#        Descriptor:     35     7    25     9     7    14
#        Energy - RMSD - RMSD MassCentre:     -59.0091    999.9999    999.9999
#        Receptor:       1  Surface Point:     1  Conformer:     0
#        Ligand:         4  Surface Point:     1  Conformer:     7
#        BUDE Formal Charge: 0
#        ATOM Count: 46
#        Heavy ATOM Count: 28
@<TRIPOS>MOLECULE
ZINC61563277_1GCZ_R01_S0001_C0000_L00004_S0001_C0007_G0010_E0001
 46 49 0 0 0
SMALL
USER_CHARGES
@<TRIPOS>ATOM
       1 C1         3.6143   -2.4923   10.0664 C.3       1 <0>        -0.1051 
       2 C2         3.6391   -1.7635    8.7442 C.2       1 <0>         0.1324 
       3 C3         4.1947   -0.5654    8.5173 C.2       1 <0>        -0.1714 
       4 C4         3.9699   -0.2275    7.0699 C.ar      1 <0>        -0.0773 
       5 C5         4.2766    0.8669    6.2525 C.ar      1 <0>        -0.0675 
       6 C6         3.9194    0.7557    4.9033 C.ar      1 <0>        -0.1361 
       7 C7         3.3295   -0.4155    4.4102 C.ar      1 <0>        -0.0920 
       8 C8         3.0402   -1.5037    5.2423 C.ar      1 <0>        -0.1265 
       9 C9         3.3187   -1.3777    6.6085 C.ar      1 <0>         0.1084 
      10 N1         3.0938   -2.2234    7.6366 N.pl3     1 <0>        -0.4675 
      11 C10        2.3635   -3.5038    7.5182 C.3       1 <0>         0.1242 
      12 C11        0.8771   -3.2424    7.5635 C.2       1 <0>         0.4463 
      13 O1         0.2032   -3.4585    6.6006 O.2       1 <0>        -0.4704 
      14 O2         0.3102   -2.7648    8.6918 O.3       1 <0>        -0.3437 
      15 C12       -1.1009   -2.5329    8.6872 C.3       1 <0>         0.1567 
      16 C13       -1.4317   -1.4679    7.6691 C.2       1 <0>         0.2874 
      17 N2        -2.1048   -1.4430    6.5338 N.2       1 <0>        -0.5106 
      18 C14       -2.0938   -0.1479    6.0022 C.2       1 <0>         0.2609 
      19 N3        -1.4204    0.6107    6.7829 N.2       1 <0>        -0.3200 
      20 O3        -0.9672   -0.1678    7.8546 O.3       1 <0>        -0.0928 
      21 C15       -2.7756    0.2936    4.7293 C.3       1 <0>         0.0037 
      22 C16       -1.8082    0.1795    3.5755 C.ar      1 <0>        -0.0973 
      23 C17       -0.9923    1.2611    3.2228 C.ar      1 <0>        -0.0995 
      24 C18       -0.0789    1.1507    2.1676 C.ar      1 <0>        -0.1207 
      25 C19        0.0117   -0.0374    1.4392 C.ar      1 <0>        -0.1122 
      26 C20       -0.8088   -1.1196    1.7790 C.ar      1 <0>        -0.1201 
      27 C21       -1.7197   -1.0060    2.8362 C.ar      1 <0>        -0.1046 
      28 Br1        5.1128    0.5259    9.7421 Br        1 <0>        -0.0155 
      29 H1         4.1216   -3.4491    9.9618 H         1 <0>         0.0903 
      30 H2         2.5826   -2.6593   10.3685 H         1 <0>         0.0953 
      31 H3         4.1211   -1.8930   10.8198 H         1 <0>         0.0712 
      32 H4         4.7637    1.7598    6.6159 H         1 <0>         0.1274 
      33 H5         4.1276    1.5866    4.2458 H         1 <0>         0.1276 
      34 H6         3.0921   -0.4935    3.3595 H         1 <0>         0.1296 
      35 H7         2.6251   -2.3950    4.7955 H         1 <0>         0.1206 
      36 H8         2.6415   -4.1567    8.3429 H         1 <0>         0.1394 
      37 H9         2.6197   -3.9824    6.5753 H         1 <0>         0.1404 
      38 H10       -1.4166   -2.2022    9.6745 H         1 <0>         0.1240 
      39 H11       -1.6185   -3.4546    8.4301 H         1 <0>         0.1139 
      40 H12       -3.0988    1.3274    4.8316 H         1 <0>         0.1085 
      41 H13       -3.6398   -0.3406    4.5428 H         1 <0>         0.1144 
      42 H14       -1.0625    2.1955    3.7596 H         1 <0>         0.1277 
      43 H15        0.5477    1.9914    1.9086 H         1 <0>         0.1259 
      44 H16        0.7156   -0.1302    0.6254 H         1 <0>         0.1247 
      45 H17       -0.7385   -2.0427    1.2228 H         1 <0>         0.1255 
      46 H18       -2.3572   -1.8447    3.0739 H         1 <0>         0.1245 
@<TRIPOS>BOND
       1        1        2 1        
       2        1       29 1        
       3        1       30 1        
       4        1       31 1        
       5        2       10 1        
       6        2        3 2        
       7        3        4 1        
       8        3       28 1        
       9        4        9 ar       
      10        4        5 ar       
      11        5        6 ar       
      12        5       32 1        
      13        6        7 ar       
      14        6       33 1        
      15        7        8 ar       
      16        7       34 1        
      17        8        9 ar       
      18        8       35 1        
      19        9       10 1        
      20       10       11 1        
      21       11       12 1        
      22       11       36 1        
      23       11       37 1        
      24       12       13 2        
      25       12       14 1        
      26       14       15 1        
      27       15       16 1        
      28       15       38 1        
      29       15       39 1        
      30       16       20 1        
      31       16       17 2        
      32       17       18 1        
      33       18       19 2        
      34       18       21 1        
      35       19       20 1        
      36       21       22 1        
      37       21       40 1        
      38       21       41 1        
      39       22       27 ar       
      40       22       23 ar       
      41       23       24 ar       
      42       23       42 1        
      43       24       25 ar       
      44       24       43 1        
      45       25       26 ar       
      46       25       44 1        
      47       26       27 ar       
      48       26       45 1        
      49       27       46 1        

