#        scan_R01_S0028_C0000_L00001_S0001_C0000_G0010_E0001.mol2
#        Mon Jun 19 14:13:20 2017
#        Descriptor:     36    33    15     1     1     4
#        Energy - RMSD - RMSD MassCentre:     -38.3723    999.9999    999.9999
#        Receptor:       1  Surface Point:    28  Conformer:     0
#        Ligand:         1  Surface Point:     1  Conformer:     0
#        BUDE Formal Charge: 0
#        ATOM Count: 27
#        Heavy ATOM Count: 17
@<TRIPOS>MOLECULE
pdb1gcz_ligA.pdb_scan_R01_S0028_C0000_L00001_S0001_C0000_G0010_E0001
27 28 1 0 0
SMALL
GASTEIGER
@<TRIPOS>ATOM
       1 C3        -2.0496    3.9427    1.2906 C.3       1 YZ9900      0.0513 
       2 C11       -1.0203    2.8910    0.9902 C.3       1 YZ9900      0.2089 
       3 O1        -1.2427    1.6938    4.1875 O.2       1 YZ9900     -0.2447 
       4 O2        -0.3755    2.4552    2.2531 O.3       1 YZ9900     -0.4453 
       5 C6        -2.6846   -3.1928    2.9260 C.ar      1 YZ9900      0.0063 
       6 C5        -1.7177   -0.8731    3.1356 C.ar      1 YZ9900      0.0160 
       7 C4        -0.5401   -3.8784    1.0389 C.ar      1 YZ9900      0.0796 
       8 O3         0.2976   -1.6399    1.3153 O.2       1 YZ9900     -0.4208 
       9 C2        -1.6896   -2.2542    2.5628 C.ar      1 YZ9900      0.0353 
      10 C1        -0.6541   -2.6067    1.6436 C.ar      1 YZ9900      0.1519 
      11 C7         0.2529   -0.4010    1.7496 C.ar      1 YZ9900      0.3521 
      12 C12       -0.8192    1.4729    3.0939 C.2       1 YZ9900      0.3476 
      13 O4        -1.5686   -6.0304    0.9216 O.3       1 YZ9900     -0.2865 
      14 O5         1.0658    0.3482    1.3801 O.2       1 YZ9900     -0.2442 
      15 C10       -2.6162   -4.4909    2.3415 C.ar      1 YZ9900      0.0422 
      16 C9        -0.7993    0.0326    2.6781 C.ar      1 YZ9900      0.1515 
      17 C8        -1.5717   -4.7891    1.4373 C.ar      1 YZ9900      0.1988 
      18 H31       -2.7907    3.5399    1.9811 H         1 YZ9900      0.0000 
      19 H32       -1.5639    4.8073    1.7431 H         1 YZ9900      0.0000 
      20 H33       -2.5410    4.2447    0.3657 H         1 YZ9900      0.0000 
      21 H112      -0.2655    3.3024    0.3200 H         1 YZ9900      0.0000 
      22 H113      -1.5018    2.0365    0.5144 H         1 YZ9900      0.0000 
      23 H6        -3.4686   -2.9344    3.6222 H         1 YZ9900      0.0000 
      24 H5        -2.4416   -0.5983    3.8885 H         1 YZ9900      0.0000 
      25 H4         0.2462   -4.1380    0.3456 H         1 YZ9900      0.0000 
      26 HO4       -2.2942   -6.1209    0.2997 H         1 YZ9900      0.0000 
      27 H10       -3.3553   -5.2392    2.5871 H         1 YZ9900      0.0000 
@<TRIPOS>BOND
       1       13       17 1        
       2        7       17 ar       
       3        7       10 ar       
       4        8       10 ar       
       5        8       11 ar       
       6       14       11 2        
       7       17       15 ar       
       8       10        9 ar       
       9       11       16 ar       
      10        2        4 1        
      11        2        1 1        
      12       15        5 ar       
      13        9        5 ar       
      14        9        6 ar       
      15       16        6 ar       
      16       16       12 1        
      17        4       12 1        
      18       12        3 2        
      19       18        1 1        
      20       19        1 1        
      21       20        1 1        
      22       21        2 1        
      23       22        2 1        
      24       23        5 1        
      25       24        6 1        
      26       25        7 1        
      27       26       13 1        
      28       27       15 1        
@<TRIPOS>SUBSTRUCTURE
 1 YZ9900 10 RESIDUE 4 A YZ9900 0 ROOT

