#        scan_R01_S0028_C0000_L00001_S0001_C0002_G0010_E0001.mol2
#        Mon Jun 19 14:41:39 2017
#        Descriptor:      7     3    27     2     2     4
#        Energy - RMSD - RMSD MassCentre:     -42.5283    999.9999    999.9999
#        Receptor:       1  Surface Point:    28  Conformer:     0
#        Ligand:         1  Surface Point:     1  Conformer:     2
#        BUDE Formal Charge: 0
#        ATOM Count: 27
#        Heavy ATOM Count: 17
@<TRIPOS>MOLECULE
pdb1gcz_ligA.pdb_scan_R01_S0028_C0000_L00001_S0001_C0002_G0010_E0001
27 28 1 0 0
SMALL
GASTEIGER
@<TRIPOS>ATOM
       1 C3        -0.8095    6.5451   -1.3394 C.3       1 YZ9900      0.0513 
       2 C11       -1.7769    5.7227   -0.4931 C.3       1 YZ9900      0.2089 
       3 O1        -2.9662    3.9128    0.9976 O.2       1 YZ9900     -0.2447 
       4 O2        -1.1328    4.5183   -0.0693 O.3       1 YZ9900     -0.4453 
       5 C6        -1.9416   -0.6439    3.1603 C.ar      1 YZ9900      0.0063 
       6 C5        -1.8931    1.5283    1.9168 C.ar      1 YZ9900      0.0160 
       7 C4         0.6905   -1.1762    2.4185 C.ar      1 YZ9900      0.0796 
       8 O3         0.7936    0.9039    1.2053 O.2       1 YZ9900     -0.4208 
       9 C2        -1.2468    0.2754    2.3672 C.ar      1 YZ9900      0.0353 
      10 C1         0.0758    0.0080    1.9944 C.ar      1 YZ9900      0.1519 
      11 C7         0.1810    2.0818    0.7839 C.ar      1 YZ9900      0.3521 
      12 C12       -1.8386    3.6579    0.6950 C.2       1 YZ9900      0.3476 
      13 O4         0.6436   -3.2446    3.6028 O.3       1 YZ9900     -0.2865 
      14 O5         0.8274    2.8526    0.0937 O.2       1 YZ9900     -0.2442 
      15 C10       -1.3221   -1.8266    3.5816 C.ar      1 YZ9900      0.0422 
      16 C9        -1.2154    2.3981    1.1584 C.ar      1 YZ9900      0.1515 
      17 C8         0.0002   -2.0999    3.2123 C.ar      1 YZ9900      0.1988 
      18 H31       -0.5202    5.9722   -2.2181 H         1 YZ9900      0.0000 
      19 H32       -1.2951    7.4675   -1.6508 H         1 YZ9900      0.0000 
      20 H33        0.0753    6.7807   -0.7519 H         1 YZ9900      0.0000 
      21 H112      -2.6560    5.4743   -1.0840 H         1 YZ9900      0.0000 
      22 H113      -2.0767    6.2992    0.3795 H         1 YZ9900      0.0000 
      23 H6        -2.9622   -0.4444    3.4517 H         1 YZ9900      0.0000 
      24 H5        -2.9137    1.7254    2.2097 H         1 YZ9900      0.0000 
      25 H4         1.7110   -1.3781    2.1284 H         1 YZ9900      0.0000 
      26 HO4        1.5439   -3.2770    3.2431 H         1 YZ9900      0.0000 
      27 H10       -1.8806   -2.5197    4.1933 H         1 YZ9900      0.0000 
@<TRIPOS>BOND
       1       13       17 1        
       2        7       17 ar       
       3        7       10 ar       
       4        8       10 ar       
       5        8       11 ar       
       6       14       11 2        
       7       17       15 ar       
       8       10        9 ar       
       9       11       16 ar       
      10        2        4 1        
      11        2        1 1        
      12       15        5 ar       
      13        9        5 ar       
      14        9        6 ar       
      15       16        6 ar       
      16       16       12 1        
      17        4       12 1        
      18       12        3 2        
      19       18        1 1        
      20       19        1 1        
      21       20        1 1        
      22       21        2 1        
      23       22        2 1        
      24       23        5 1        
      25       24        6 1        
      26       25        7 1        
      27       26       13 1        
      28       27       15 1        
@<TRIPOS>SUBSTRUCTURE
 1 YZ9900 10 RESIDUE 4 A YZ9900 0 ROOT

