#        scan_R01_S0028_C0000_L00001_S0001_C0002_G0010_E0001.mol2
#        Mon Jun 19 14:13:20 2017
#        Descriptor:     20    16    10     1     1     4
#        Energy - RMSD - RMSD MassCentre:     -42.0407    999.9999    999.9999
#        Receptor:       1  Surface Point:    28  Conformer:     0
#        Ligand:         1  Surface Point:     1  Conformer:     2
#        BUDE Formal Charge: 0
#        ATOM Count: 27
#        Heavy ATOM Count: 17
@<TRIPOS>MOLECULE
pdb1gcz_ligA.pdb_scan_R01_S0028_C0000_L00001_S0001_C0002_G0010_E0001
27 28 1 0 0
SMALL
GASTEIGER
@<TRIPOS>ATOM
       1 C3        -2.4741    6.0421    0.3028 C.3       1 YZ9900      0.0513 
       2 C11       -2.7147    5.2455    1.5819 C.3       1 YZ9900      0.2089 
       3 O1        -2.8678    3.4143    3.4622 O.2       1 YZ9900     -0.2447 
       4 O2        -2.2414    3.9077    1.4054 O.3       1 YZ9900     -0.4453 
       5 C6        -1.6427   -1.5300    4.1993 C.ar      1 YZ9900      0.0063 
       6 C5        -2.0115    0.7824    3.3138 C.ar      1 YZ9900      0.0160 
       7 C4        -0.4928   -2.3163    1.7866 C.ar      1 YZ9900      0.0796 
       8 O3        -0.8233   -0.1067    0.8824 O.2       1 YZ9900     -0.4208 
       9 C2        -1.5286   -0.6074    3.1540 C.ar      1 YZ9900      0.0353 
      10 C1        -0.9508   -1.0024    1.9416 C.ar      1 YZ9900      0.1519 
      11 C7        -1.2793    1.2003    1.0377 C.ar      1 YZ9900      0.3521 
      12 C12       -2.3704    3.0488    2.4390 C.2       1 YZ9900      0.3476 
      13 O4        -0.1418   -4.5181    2.6304 O.3       1 YZ9900     -0.2865 
      14 O5        -1.1581    1.9686    0.0978 O.2       1 YZ9900     -0.2442 
      15 C10       -1.1830   -2.8426    4.0389 C.ar      1 YZ9900      0.0422 
      16 C9        -1.8955    1.6536    2.3046 C.ar      1 YZ9900      0.1515 
      17 C8        -0.6043   -3.2439    2.8291 C.ar      1 YZ9900      0.1988 
      18 H31       -3.0187    5.5811   -0.5187 H         1 YZ9900      0.0000 
      19 H32       -2.8222    7.0635    0.4417 H         1 YZ9900      0.0000 
      20 H33       -1.4103    6.0486    0.0751 H         1 YZ9900      0.0000 
      21 H112      -3.7799    5.2263    1.8031 H         1 YZ9900      0.0000 
      22 H113      -2.1808    5.7126    2.4067 H         1 YZ9900      0.0000 
      23 H6        -2.0873   -1.2324    5.1374 H         1 YZ9900      0.0000 
      24 H5        -2.4558    1.0774    4.2530 H         1 YZ9900      0.0000 
      25 H4        -0.0477   -2.6164    0.8494 H         1 YZ9900      0.0000 
      26 HO4        0.2096   -4.6239    1.7324 H         1 YZ9900      0.0000 
      27 H10       -1.2829   -3.5354    4.8614 H         1 YZ9900      0.0000 
@<TRIPOS>BOND
       1       13       17 1        
       2        7       17 ar       
       3        7       10 ar       
       4        8       10 ar       
       5        8       11 ar       
       6       14       11 2        
       7       17       15 ar       
       8       10        9 ar       
       9       11       16 ar       
      10        2        4 1        
      11        2        1 1        
      12       15        5 ar       
      13        9        5 ar       
      14        9        6 ar       
      15       16        6 ar       
      16       16       12 1        
      17        4       12 1        
      18       12        3 2        
      19       18        1 1        
      20       19        1 1        
      21       20        1 1        
      22       21        2 1        
      23       22        2 1        
      24       23        5 1        
      25       24        6 1        
      26       25        7 1        
      27       26       13 1        
      28       27       15 1        
@<TRIPOS>SUBSTRUCTURE
 1 YZ9900 10 RESIDUE 4 A YZ9900 0 ROOT

