#        scan_R01_S0028_C0000_L00001_S0001_C0003_G0010_E0001.mol2
#        Mon Jun 19 14:13:21 2017
#        Descriptor:     23    15     8     1     3     4
#        Energy - RMSD - RMSD MassCentre:     -39.9419    999.9999    999.9999
#        Receptor:       1  Surface Point:    28  Conformer:     0
#        Ligand:         1  Surface Point:     1  Conformer:     3
#        BUDE Formal Charge: 0
#        ATOM Count: 27
#        Heavy ATOM Count: 17
@<TRIPOS>MOLECULE
pdb1gcz_ligA.pdb_scan_R01_S0028_C0000_L00001_S0001_C0003_G0010_E0001
27 28 1 0 0
SMALL
GASTEIGER
@<TRIPOS>ATOM
       1 C3        -2.8206    7.3055   -0.4386 C.3       1 YZ9900      0.0513 
       2 C11       -1.3650    7.1623   -0.0034 C.3       1 YZ9900      0.2089 
       3 O1        -2.6165    5.7400    1.8193 O.2       1 YZ9900     -0.2447 
       4 O2        -1.0752    5.7836    0.2418 O.3       1 YZ9900     -0.4453 
       5 C6        -2.6246    0.9488    3.6997 C.ar      1 YZ9900      0.0063 
       6 C5        -2.2008    3.0712    2.4413 C.ar      1 YZ9900      0.0160 
       7 C4        -0.6606   -0.3672    2.2258 C.ar      1 YZ9900      0.0796 
       8 O3        -0.2105    1.6480    0.9826 O.2       1 YZ9900     -0.4208 
       9 C2        -1.9179    1.6441    2.7127 C.ar      1 YZ9900      0.0353 
      10 C1        -0.9310    0.9828    1.9720 C.ar      1 YZ9900      0.1519 
      11 C7        -0.4804    2.9912    0.7310 C.ar      1 YZ9900      0.3521 
      12 C12       -1.7800    5.1497    1.2031 C.2       1 YZ9900      0.3476 
      13 O4        -1.0646   -2.3878    3.4244 O.3       1 YZ9900     -0.2865 
      14 O5         0.1620    3.5549   -0.1397 O.2       1 YZ9900     -0.2442 
      15 C10       -2.3501   -0.4011    3.9494 C.ar      1 YZ9900      0.0422 
      16 C9        -1.5163    3.7228    1.4938 C.ar      1 YZ9900      0.1515 
      17 C8        -1.3645   -1.0680    3.2122 C.ar      1 YZ9900      0.1988 
      18 H31       -3.4726    6.9441    0.3540 H         1 YZ9900      0.0000 
      19 H32       -3.0374    8.3529   -0.6381 H         1 YZ9900      0.0000 
      20 H33       -2.9877    6.7216   -1.3412 H         1 YZ9900      0.0000 
      21 H112      -1.2000    7.7345    0.9071 H         1 YZ9900      0.0000 
      22 H113      -0.7123    7.5350   -0.7900 H         1 YZ9900      0.0000 
      23 H6        -3.3873    1.4524    4.2751 H         1 YZ9900      0.0000 
      24 H5        -2.9640    3.5723    3.0182 H         1 YZ9900      0.0000 
      25 H4         0.1017   -0.8731    1.6518 H         1 YZ9900      0.0000 
      26 HO4       -0.3725   -2.6891    2.8151 H         1 YZ9900      0.0000 
      27 H10       -2.9099   -0.9149    4.7169 H         1 YZ9900      0.0000 
@<TRIPOS>BOND
       1       13       17 1        
       2        7       17 ar       
       3        7       10 ar       
       4        8       10 ar       
       5        8       11 ar       
       6       14       11 2        
       7       17       15 ar       
       8       10        9 ar       
       9       11       16 ar       
      10        2        4 1        
      11        2        1 1        
      12       15        5 ar       
      13        9        5 ar       
      14        9        6 ar       
      15       16        6 ar       
      16       16       12 1        
      17        4       12 1        
      18       12        3 2        
      19       18        1 1        
      20       19        1 1        
      21       20        1 1        
      22       21        2 1        
      23       22        2 1        
      24       23        5 1        
      25       24        6 1        
      26       25        7 1        
      27       26       13 1        
      28       27       15 1        
@<TRIPOS>SUBSTRUCTURE
 1 YZ9900 10 RESIDUE 4 A YZ9900 0 ROOT

