#        scan_R01_S0029_C0000_L00001_S0001_C0000_G0010_E0001.mol2
#        Mon Jun 19 14:41:40 2017
#        Descriptor:     13    11    13     2     2     5
#        Energy - RMSD - RMSD MassCentre:     -46.7577    999.9999    999.9999
#        Receptor:       1  Surface Point:    29  Conformer:     0
#        Ligand:         1  Surface Point:     1  Conformer:     0
#        BUDE Formal Charge: 0
#        ATOM Count: 27
#        Heavy ATOM Count: 17
@<TRIPOS>MOLECULE
pdb1gcz_ligA.pdb_scan_R01_S0029_C0000_L00001_S0001_C0000_G0010_E0001
27 28 1 0 0
SMALL
GASTEIGER
@<TRIPOS>ATOM
       1 C3        -2.6519    0.6868    7.3048 C.3       1 YZ9900      0.0513 
       2 C11       -2.7027   -0.0110    5.9757 C.3       1 YZ9900      0.2089 
       3 O1        -1.5255    2.7920    4.4064 O.2       1 YZ9900     -0.2447 
       4 O2        -2.7968    0.9969    4.8913 O.3       1 YZ9900     -0.4453 
       5 C6         2.7807    0.5991    2.3578 C.ar      1 YZ9900      0.0063 
       6 C5         0.5066    1.2254    3.2502 C.ar      1 YZ9900      0.0160 
       7 C4         1.5693   -1.6943    0.9784 C.ar      1 YZ9900      0.0796 
       8 O3        -0.5510   -1.0048    1.8825 O.2       1 YZ9900     -0.4208 
       9 C2         1.3930    0.3339    2.4402 C.ar      1 YZ9900      0.0353 
      10 C1         0.8222   -0.7864    1.7615 C.ar      1 YZ9900      0.1519 
      11 C7        -1.3369   -0.2785    2.6444 C.ar      1 YZ9900      0.3521 
      12 C12       -1.7511    1.6274    4.2766 C.2       1 YZ9900      0.3476 
      13 O4         3.7795   -2.1819    0.2170 O.3       1 YZ9900     -0.2865 
      14 O5        -2.4631   -0.5692    2.7199 O.2       1 YZ9900     -0.2442 
      15 C10        3.5804   -0.2891    1.5814 C.ar      1 YZ9900      0.0422 
      16 C9        -0.8087    0.8731    3.3875 C.ar      1 YZ9900      0.1515 
      17 C8         2.9669   -1.3831    0.9299 C.ar      1 YZ9900      0.1988 
      18 H31       -1.7944    1.3594    7.3301 H         1 YZ9900      0.0000 
      19 H32       -3.5676    1.2604    7.4488 H         1 YZ9900      0.0000 
      20 H33       -2.5575   -0.0526    8.0999 H         1 YZ9900      0.0000 
      21 H112      -3.5748   -0.6640    5.9414 H         1 YZ9900      0.0000 
      22 H113      -1.7985   -0.6050    5.8423 H         1 YZ9900      0.0000 
      23 H6         3.2186    1.4455    2.8657 H         1 YZ9900      0.0000 
      24 H5         0.8931    2.1211    3.7133 H         1 YZ9900      0.0000 
      25 H4         1.1307   -2.5386    0.4673 H         1 YZ9900      0.0000 
      26 HO4        4.3313   -2.6926    0.8139 H         1 YZ9900      0.0000 
      27 H10        4.6445   -0.1279    1.4917 H         1 YZ9900      0.0000 
@<TRIPOS>BOND
       1       13       17 1        
       2        7       17 ar       
       3        7       10 ar       
       4        8       10 ar       
       5        8       11 ar       
       6       14       11 2        
       7       17       15 ar       
       8       10        9 ar       
       9       11       16 ar       
      10        2        4 1        
      11        2        1 1        
      12       15        5 ar       
      13        9        5 ar       
      14        9        6 ar       
      15       16        6 ar       
      16       16       12 1        
      17        4       12 1        
      18       12        3 2        
      19       18        1 1        
      20       19        1 1        
      21       20        1 1        
      22       21        2 1        
      23       22        2 1        
      24       23        5 1        
      25       24        6 1        
      26       25        7 1        
      27       26       13 1        
      28       27       15 1        
@<TRIPOS>SUBSTRUCTURE
 1 YZ9900 10 RESIDUE 4 A YZ9900 0 ROOT

