#        scan_R01_S0029_C0000_L00001_S0001_C0002_G0010_E0001.mol2
#        Mon Jun 19 14:13:23 2017
#        Descriptor:     25     3    19     2     3     5
#        Energy - RMSD - RMSD MassCentre:     -48.1046    999.9999    999.9999
#        Receptor:       1  Surface Point:    29  Conformer:     0
#        Ligand:         1  Surface Point:     1  Conformer:     2
#        BUDE Formal Charge: 0
#        ATOM Count: 27
#        Heavy ATOM Count: 17
@<TRIPOS>MOLECULE
pdb1gcz_ligA.pdb_scan_R01_S0029_C0000_L00001_S0001_C0002_G0010_E0001
27 28 1 0 0
SMALL
GASTEIGER
@<TRIPOS>ATOM
       1 C3         6.2115    1.2733   -0.9985 C.3       1 YZ9900      0.0513 
       2 C11        5.2527    0.1219   -0.7094 C.3       1 YZ9900      0.2089 
       3 O1         3.2967   -1.4306    0.1126 O.2       1 YZ9900     -0.2447 
       4 O2         4.1864    0.5879    0.1217 O.3       1 YZ9900     -0.4453 
       5 C6        -0.9695   -1.1425    2.9775 C.ar      1 YZ9900      0.0063 
       6 C5         1.1523   -0.7191    1.7180 C.ar      1 YZ9900      0.0160 
       7 C4        -1.0560    1.5149    3.8094 C.ar      1 YZ9900      0.0796 
       8 O3         0.9850    1.9796    2.6146 O.2       1 YZ9900     -0.4208 
       9 C2         0.0389   -0.2592    2.5779 C.ar      1 YZ9900      0.0353 
      10 C1        -0.0045    1.0762    2.9959 C.ar      1 YZ9900      0.1519 
      11 C7         2.0308    1.5419    1.8052 C.ar      1 YZ9900      0.3521 
      12 C12        3.2334   -0.2968    0.4847 C.2       1 YZ9900      0.3476 
      13 O4        -3.0764    1.1111    5.0085 O.3       1 YZ9900     -0.2865 
      14 O5         2.8868    2.3492    1.4827 O.2       1 YZ9900     -0.2442 
      15 C10       -2.0188   -0.6985    3.7911 C.ar      1 YZ9900      0.0422 
      16 C9         2.1097    0.1378    1.3440 C.ar      1 YZ9900      0.1515 
      17 C8        -2.0679    0.6356    4.2124 C.ar      1 YZ9900      0.1988 
      18 H31        6.6285    1.6406   -0.0630 H         1 YZ9900      0.0000 
      19 H32        7.0155    0.9219   -1.6416 H         1 YZ9900      0.0000 
      20 H33        5.6727    2.0767   -1.4963 H         1 YZ9900      0.0000 
      21 H112       5.7870   -0.6766   -0.1989 H         1 YZ9900      0.0000 
      22 H113       4.8444   -0.2545   -1.6450 H         1 YZ9900      0.0000 
      23 H6        -0.9426   -2.1741    2.6590 H         1 YZ9900      0.0000 
      24 H5         1.1767   -1.7512    1.4009 H         1 YZ9900      0.0000 
      25 H4        -1.0852    2.5461    4.1293 H         1 YZ9900      0.0000 
      26 HO4       -2.9419    2.0490    5.2164 H         1 YZ9900      0.0000 
      27 H10       -2.7848   -1.4006    4.0855 H         1 YZ9900      0.0000 
@<TRIPOS>BOND
       1       13       17 1        
       2        7       17 ar       
       3        7       10 ar       
       4        8       10 ar       
       5        8       11 ar       
       6       14       11 2        
       7       17       15 ar       
       8       10        9 ar       
       9       11       16 ar       
      10        2        4 1        
      11        2        1 1        
      12       15        5 ar       
      13        9        5 ar       
      14        9        6 ar       
      15       16        6 ar       
      16       16       12 1        
      17        4       12 1        
      18       12        3 2        
      19       18        1 1        
      20       19        1 1        
      21       20        1 1        
      22       21        2 1        
      23       22        2 1        
      24       23        5 1        
      25       24        6 1        
      26       25        7 1        
      27       26       13 1        
      28       27       15 1        
@<TRIPOS>SUBSTRUCTURE
 1 YZ9900 10 RESIDUE 4 A YZ9900 0 ROOT

