#        scan_R01_S0029_C0000_L00001_S0001_C0003_G0010_E0001.mol2
#        Mon Jun 19 14:41:41 2017
#        Descriptor:      9     4    15     1     2     6
#        Energy - RMSD - RMSD MassCentre:     -48.9216    999.9999    999.9999
#        Receptor:       1  Surface Point:    29  Conformer:     0
#        Ligand:         1  Surface Point:     1  Conformer:     3
#        BUDE Formal Charge: 0
#        ATOM Count: 27
#        Heavy ATOM Count: 17
@<TRIPOS>MOLECULE
pdb1gcz_ligA.pdb_scan_R01_S0029_C0000_L00001_S0001_C0003_G0010_E0001
27 28 1 0 0
SMALL
GASTEIGER
@<TRIPOS>ATOM
       1 C3         3.8921    0.3497   -0.9966 C.3       1 YZ9900      0.0513 
       2 C11        4.0988   -0.7385    0.0531 C.3       1 YZ9900      0.2089 
       3 O1         3.1649    1.2437    1.5060 O.2       1 YZ9900     -0.2447 
       4 O2         2.9231   -0.8514    0.8592 O.3       1 YZ9900     -0.4453 
       5 C6        -0.7383    2.2254    4.7142 C.ar      1 YZ9900      0.0063 
       6 C5         0.9151    1.2217    3.1247 C.ar      1 YZ9900      0.0160 
       7 C4        -2.1642   -0.1662    4.8077 C.ar      1 YZ9900      0.0796 
       8 O3        -0.6029   -1.1837    3.2793 O.2       1 YZ9900     -0.4208 
       9 C2        -0.2988    1.1280    3.9661 C.ar      1 YZ9900      0.0353 
      10 C1        -1.0153   -0.0737    4.0130 C.ar      1 YZ9900      0.1519 
      11 C7         0.5403   -1.0906    2.4889 C.ar      1 YZ9900      0.3521 
      12 C12        2.5333    0.2310    1.5657 C.2       1 YZ9900      0.3476 
      13 O4        -3.7382    0.7901    6.3213 O.3       1 YZ9900     -0.2865 
      14 O5         0.8841   -2.0743    1.8544 O.2       1 YZ9900     -0.2442 
      15 C10       -1.8878    2.1274    5.5073 C.ar      1 YZ9900      0.0422 
      16 C9         1.3229    0.1633    2.4146 C.ar      1 YZ9900      0.1515 
      17 C8        -2.6087    0.9285    5.5586 C.ar      1 YZ9900      0.1988 
      18 H31        3.7121    1.3014   -0.5008 H         1 YZ9900      0.0000 
      19 H32        4.7816    0.4264   -1.6184 H         1 YZ9900      0.0000 
      20 H33        3.0356    0.0957   -1.6175 H         1 YZ9900      0.0000 
      21 H112       4.9465   -0.4787    0.6837 H         1 YZ9900      0.0000 
      22 H113       4.2913   -1.6883   -0.4413 H         1 YZ9900      0.0000 
      23 H6        -0.1906    3.1557    4.6829 H         1 YZ9900      0.0000 
      24 H5         1.4609    2.1532    3.0953 H         1 YZ9900      0.0000 
      25 H4        -2.7136   -1.0954    4.8408 H         1 YZ9900      0.0000 
      26 HO4       -4.1166   -0.0978    6.2237 H         1 YZ9900      0.0000 
      27 H10       -2.2057    2.9893    6.0752 H         1 YZ9900      0.0000 
@<TRIPOS>BOND
       1       13       17 1        
       2        7       17 ar       
       3        7       10 ar       
       4        8       10 ar       
       5        8       11 ar       
       6       14       11 2        
       7       17       15 ar       
       8       10        9 ar       
       9       11       16 ar       
      10        2        4 1        
      11        2        1 1        
      12       15        5 ar       
      13        9        5 ar       
      14        9        6 ar       
      15       16        6 ar       
      16       16       12 1        
      17        4       12 1        
      18       12        3 2        
      19       18        1 1        
      20       19        1 1        
      21       20        1 1        
      22       21        2 1        
      23       22        2 1        
      24       23        5 1        
      25       24        6 1        
      26       25        7 1        
      27       26       13 1        
      28       27       15 1        
@<TRIPOS>SUBSTRUCTURE
 1 YZ9900 10 RESIDUE 4 A YZ9900 0 ROOT

