#        1GCZ_R01_S0001_C0000_L00004_S0001_C0008_G0010_E0001.mol2
#        Tue Jun  6 09:55:26 2017
#        Descriptor:     32     4     4    10     6    14
#        Energy - RMSD - RMSD MassCentre:     -61.8194    999.9999    999.9999
#        Receptor:       1  Surface Point:     1  Conformer:     0
#        Ligand:         4  Surface Point:     1  Conformer:     8
#        BUDE Formal Charge: 0
#        ATOM Count: 46
#        Heavy ATOM Count: 28
@<TRIPOS>MOLECULE
ZINC61563277_1GCZ_R01_S0001_C0000_L00004_S0001_C0008_G0010_E0001
 46 49 0 0 0
SMALL
USER_CHARGES
@<TRIPOS>ATOM
       1 C1         2.0711    3.2389    7.0383 C.3       1 <0>        -0.1051 
       2 C2         1.1240    2.3187    6.3060 C.2       1 <0>         0.1324 
       3 C3        -0.1667    2.1190    6.6054 C.2       1 <0>        -0.1714 
       4 C4        -0.7106    1.1177    5.6251 C.ar      1 <0>        -0.0773 
       5 C5        -1.9495    0.4936    5.4363 C.ar      1 <0>        -0.0675 
       6 C6        -2.0511   -0.3685    4.3377 C.ar      1 <0>        -0.1361 
       7 C7        -0.9727   -0.5462    3.4612 C.ar      1 <0>        -0.0920 
       8 C8         0.2554    0.0956    3.6616 C.ar      1 <0>        -0.1265 
       9 C9         0.3985    0.8988    4.7993 C.ar      1 <0>         0.1084 
      10 N1         1.4657    1.5773    5.2720 N.pl3     1 <0>        -0.4675 
      11 C10        2.8205    1.5157    4.6824 C.3       1 <0>         0.1242 
      12 C11        3.5327    0.2821    5.1832 C.2       1 <0>         0.4463 
      13 O1         3.8132   -0.5956    4.4224 O.2       1 <0>        -0.4704 
      14 O2         3.8520    0.1715    6.4903 O.3       1 <0>        -0.3437 
      15 C12        4.5260   -1.0150    6.9180 C.3       1 <0>         0.1567 
      16 C13        3.6328   -2.2107    6.6887 C.2       1 <0>         0.2874 
      17 N2         3.6830   -3.2735    5.9074 N.2       1 <0>        -0.5106 
      18 C14        2.5572   -4.0772    6.1240 C.2       1 <0>         0.2609 
      19 N3         1.8200   -3.5209    7.0103 N.2       1 <0>        -0.3200 
      20 O3         2.4429   -2.3302    7.4030 O.3       1 <0>        -0.0928 
      21 C15        2.2624   -5.3922    5.4429 C.3       1 <0>         0.0037 
      22 C16        2.8088   -6.5246    6.2791 C.ar      1 <0>        -0.0973 
      23 C17        4.1123   -6.9932    6.0762 C.ar      1 <0>        -0.0995 
      24 C18        4.6288   -8.0281    6.8649 C.ar      1 <0>        -0.1207 
      25 C19        3.8373   -8.6208    7.8511 C.ar      1 <0>        -0.1122 
      26 C20        2.5290   -8.1650    8.0524 C.ar      1 <0>        -0.1201 
      27 C21        2.0167   -7.1285    7.2630 C.ar      1 <0>        -0.1046 
      28 Br1       -1.1668    2.9283    7.9763 Br        1 <0>        -0.0155 
      29 H1         2.4462    3.9940    6.3506 H         1 <0>         0.0903 
      30 H2         2.9043    2.6612    7.4330 H         1 <0>         0.0953 
      31 H3         1.5442    3.7233    7.8576 H         1 <0>         0.0712 
      32 H4        -2.7978    0.6517    6.0857 H         1 <0>         0.1274 
      33 H5        -2.9879   -0.8788    4.1691 H         1 <0>         0.1276 
      34 H6        -1.0827   -1.1900    2.6010 H         1 <0>         0.1296 
      35 H7         1.0346   -0.0474    2.9278 H         1 <0>         0.1206 
      36 H8         3.3822    2.4010    4.9728 H         1 <0>         0.1394 
      37 H9         2.7432    1.4756    3.5979 H         1 <0>         0.1404 
      38 H10        4.7621   -0.9356    7.9770 H         1 <0>         0.1240 
      39 H11        5.4456   -1.1341    6.3487 H         1 <0>         0.1139 
      40 H12        2.7330   -5.4052    4.4619 H         1 <0>         0.1085 
      41 H13        1.1866   -5.5090    5.3315 H         1 <0>         0.1144 
      42 H14        4.7329   -6.5627    5.3042 H         1 <0>         0.1277 
      43 H15        5.6375   -8.3772    6.7009 H         1 <0>         0.1259 
      44 H16        4.2300   -9.4183    8.4645 H         1 <0>         0.1247 
      45 H17        1.9147   -8.6160    8.8177 H         1 <0>         0.1255 
      46 H18        0.9997   -6.8008    7.4200 H         1 <0>         0.1245 
@<TRIPOS>BOND
       1        1        2 1        
       2        1       29 1        
       3        1       30 1        
       4        1       31 1        
       5        2       10 1        
       6        2        3 2        
       7        3        4 1        
       8        3       28 1        
       9        4        9 ar       
      10        4        5 ar       
      11        5        6 ar       
      12        5       32 1        
      13        6        7 ar       
      14        6       33 1        
      15        7        8 ar       
      16        7       34 1        
      17        8        9 ar       
      18        8       35 1        
      19        9       10 1        
      20       10       11 1        
      21       11       12 1        
      22       11       36 1        
      23       11       37 1        
      24       12       13 2        
      25       12       14 1        
      26       14       15 1        
      27       15       16 1        
      28       15       38 1        
      29       15       39 1        
      30       16       20 1        
      31       16       17 2        
      32       17       18 1        
      33       18       19 2        
      34       18       21 1        
      35       19       20 1        
      36       21       22 1        
      37       21       40 1        
      38       21       41 1        
      39       22       27 ar       
      40       22       23 ar       
      41       23       24 ar       
      42       23       42 1        
      43       24       25 ar       
      44       24       43 1        
      45       25       26 ar       
      46       25       44 1        
      47       26       27 ar       
      48       26       45 1        
      49       27       46 1        

