#        scan_R01_S0029_C0000_L00001_S0001_C0003_G0010_E0001.mol2
#        Mon Jun 19 14:13:24 2017
#        Descriptor:      7     5    15     1     2     6
#        Energy - RMSD - RMSD MassCentre:     -49.2856    999.9999    999.9999
#        Receptor:       1  Surface Point:    29  Conformer:     0
#        Ligand:         1  Surface Point:     1  Conformer:     3
#        BUDE Formal Charge: 0
#        ATOM Count: 27
#        Heavy ATOM Count: 17
@<TRIPOS>MOLECULE
pdb1gcz_ligA.pdb_scan_R01_S0029_C0000_L00001_S0001_C0003_G0010_E0001
27 28 1 0 0
SMALL
GASTEIGER
@<TRIPOS>ATOM
       1 C3         3.8849    0.6430   -0.9745 C.3       1 YZ9900      0.0513 
       2 C11        3.8071   -0.7236   -0.3000 C.3       1 YZ9900      0.2089 
       3 O1         3.3704    0.9018    1.7198 O.2       1 YZ9900     -0.2447 
       4 O2         2.6304   -0.7880    0.5102 O.3       1 YZ9900     -0.4453 
       5 C6        -0.2095    1.7856    5.3105 C.ar      1 YZ9900      0.0063 
       6 C5         1.1656    0.9356    3.3991 C.ar      1 YZ9900      0.0160 
       7 C4        -2.1785   -0.1169    4.7956 C.ar      1 YZ9900      0.0796 
       8 O3        -0.8967   -0.9761    2.9441 O.2       1 YZ9900     -0.4208 
       9 C2        -0.0437    0.8876    4.2509 C.ar      1 YZ9900      0.0353 
      10 C1        -1.0331   -0.0684    3.9920 C.ar      1 YZ9900      0.1519 
      11 C7         0.2434   -0.9269    2.1453 C.ar      1 YZ9900      0.3521 
      12 C12        2.5095    0.0968    1.5226 C.2       1 YZ9900      0.3476 
      13 O4        -3.4875    0.6930    6.6158 O.3       1 YZ9900     -0.2865 
      14 O5         0.3431   -1.7308    1.2330 O.2       1 YZ9900     -0.2442 
      15 C10       -1.3570    1.7327    6.1110 C.ar      1 YZ9900      0.0422 
      16 C9         1.3099    0.0698    2.3889 C.ar      1 YZ9900      0.1515 
      17 C8        -2.3499    0.7791    5.8574 C.ar      1 YZ9900      0.1988 
      18 H31        3.9377    1.4195   -0.2142 H         1 YZ9900      0.0000 
      19 H32        4.7730    0.6872   -1.6014 H         1 YZ9900      0.0000 
      20 H33        2.9993    0.7948   -1.5880 H         1 YZ9900      0.0000 
      21 H112       4.6854   -0.8708    0.3250 H         1 YZ9900      0.0000 
      22 H113       3.7668   -1.5018   -1.0593 H         1 YZ9900      0.0000 
      23 H6         0.5495    2.5259    5.5162 H         1 YZ9900      0.0000 
      24 H5         1.9231    1.6768    3.6069 H         1 YZ9900      0.0000 
      25 H4        -2.9390   -0.8563    4.5920 H         1 YZ9900      0.0000 
      26 HO4       -4.0706   -0.0100    6.2889 H         1 YZ9900      0.0000 
      27 H10       -1.4606    2.4374    6.9228 H         1 YZ9900      0.0000 
@<TRIPOS>BOND
       1       13       17 1        
       2        7       17 ar       
       3        7       10 ar       
       4        8       10 ar       
       5        8       11 ar       
       6       14       11 2        
       7       17       15 ar       
       8       10        9 ar       
       9       11       16 ar       
      10        2        4 1        
      11        2        1 1        
      12       15        5 ar       
      13        9        5 ar       
      14        9        6 ar       
      15       16        6 ar       
      16       16       12 1        
      17        4       12 1        
      18       12        3 2        
      19       18        1 1        
      20       19        1 1        
      21       20        1 1        
      22       21        2 1        
      23       22        2 1        
      24       23        5 1        
      25       24        6 1        
      26       25        7 1        
      27       26       13 1        
      28       27       15 1        
@<TRIPOS>SUBSTRUCTURE
 1 YZ9900 10 RESIDUE 4 A YZ9900 0 ROOT

