#        scan_R01_S0030_C0000_L00001_S0001_C0000_G0010_E0001.mol2
#        Mon Jun 19 14:41:42 2017
#        Descriptor:     19     8    30     3     2     4
#        Energy - RMSD - RMSD MassCentre:     -46.5520    999.9999    999.9999
#        Receptor:       1  Surface Point:    30  Conformer:     0
#        Ligand:         1  Surface Point:     1  Conformer:     0
#        BUDE Formal Charge: 0
#        ATOM Count: 27
#        Heavy ATOM Count: 17
@<TRIPOS>MOLECULE
pdb1gcz_ligA.pdb_scan_R01_S0030_C0000_L00001_S0001_C0000_G0010_E0001
27 28 1 0 0
SMALL
GASTEIGER
@<TRIPOS>ATOM
       1 C3         4.8504    1.1018    5.1616 C.3       1 YZ9900      0.0513 
       2 C11        3.8374    1.7396    4.2545 C.3       1 YZ9900      0.2089 
       3 O1         4.4173   -0.6348    1.8604 O.2       1 YZ9900     -0.2447 
       4 O2         4.1303    1.3691    2.8482 O.3       1 YZ9900     -0.4453 
       5 C6        -0.4919   -2.4738    1.6024 C.ar      1 YZ9900      0.0063 
       6 C5         1.6536   -1.1618    1.7907 C.ar      1 YZ9900      0.0160 
       7 C4        -1.9453    0.0364    1.1373 C.ar      1 YZ9900      0.0796 
       8 O3         0.1585    1.1873    1.3335 O.2       1 YZ9900     -0.4208 
       9 C2         0.1753   -1.2261    1.5734 C.ar      1 YZ9900      0.0353 
      10 C1        -0.5489   -0.0159    1.3451 C.ar      1 YZ9900      0.1519 
      11 C7         1.4433    1.2761    1.5921 C.ar      1 YZ9900      0.3521 
      12 C12        3.6914    0.2512    2.1953 C.2       1 YZ9900      0.3476 
      13 O4        -3.9022   -1.3250    0.9986 O.3       1 YZ9900     -0.2865 
      14 O5         1.9364    2.3321    1.6078 O.2       1 YZ9900     -0.2442 
      15 C10       -1.9027   -2.4758    1.4004 C.ar      1 YZ9900      0.0422 
      16 C9         2.2414    0.0722    1.8585 C.ar      1 YZ9900      0.1515 
      17 C8        -2.5723   -1.2510    1.1790 C.ar      1 YZ9900      0.1988 
      18 H31        4.8213    0.0194    5.0356 H         1 YZ9900      0.0000 
      19 H32        5.8452    1.4699    4.9106 H         1 YZ9900      0.0000 
      20 H33        4.6204    1.3534    6.1969 H         1 YZ9900      0.0000 
      21 H112       3.8848    2.8233    4.3621 H         1 YZ9900      0.0000 
      22 H113       2.8397    1.3911    4.5218 H         1 YZ9900      0.0000 
      23 H6         0.0493   -3.3928    1.7715 H         1 YZ9900      0.0000 
      24 H5         2.2402   -2.0630    1.8913 H         1 YZ9900      0.0000 
      25 H4        -2.4860    0.9552    0.9643 H         1 YZ9900      0.0000 
      26 HO4       -4.3269   -1.5443    1.8311 H         1 YZ9900      0.0000 
      27 H10       -2.4547   -3.4040    1.4165 H         1 YZ9900      0.0000 
@<TRIPOS>BOND
       1       13       17 1        
       2        7       17 ar       
       3        7       10 ar       
       4        8       10 ar       
       5        8       11 ar       
       6       14       11 2        
       7       17       15 ar       
       8       10        9 ar       
       9       11       16 ar       
      10        2        4 1        
      11        2        1 1        
      12       15        5 ar       
      13        9        5 ar       
      14        9        6 ar       
      15       16        6 ar       
      16       16       12 1        
      17        4       12 1        
      18       12        3 2        
      19       18        1 1        
      20       19        1 1        
      21       20        1 1        
      22       21        2 1        
      23       22        2 1        
      24       23        5 1        
      25       24        6 1        
      26       25        7 1        
      27       26       13 1        
      28       27       15 1        
@<TRIPOS>SUBSTRUCTURE
 1 YZ9900 10 RESIDUE 4 A YZ9900 0 ROOT

