#        scan_R01_S0030_C0000_L00001_S0001_C0000_G0010_E0001.mol2
#        Mon Jun 19 14:13:24 2017
#        Descriptor:     18     8    33     3     1     4
#        Energy - RMSD - RMSD MassCentre:     -42.1797    999.9999    999.9999
#        Receptor:       1  Surface Point:    30  Conformer:     0
#        Ligand:         1  Surface Point:     1  Conformer:     0
#        BUDE Formal Charge: 0
#        ATOM Count: 27
#        Heavy ATOM Count: 17
@<TRIPOS>MOLECULE
pdb1gcz_ligA.pdb_scan_R01_S0030_C0000_L00001_S0001_C0000_G0010_E0001
27 28 1 0 0
SMALL
GASTEIGER
@<TRIPOS>ATOM
       1 C3         4.2890    1.4378    5.0455 C.3       1 YZ9900      0.0513 
       2 C11        3.1026    1.6653    4.1529 C.3       1 YZ9900      0.2089 
       3 O1         4.4238   -0.4231    1.7867 O.2       1 YZ9900     -0.2447 
       4 O2         3.4809    1.3835    2.7464 O.3       1 YZ9900     -0.4453 
       5 C6         0.4455   -3.8452    1.6824 C.ar      1 YZ9900      0.0063 
       6 C5         2.0103   -1.8707    1.7948 C.ar      1 YZ9900      0.0160 
       7 C4        -1.7919   -2.0009    1.2102 C.ar      1 YZ9900      0.0796 
       8 O3        -0.2106   -0.1918    1.3341 O.2       1 YZ9900     -0.4208 
       9 C2         0.6412   -2.4452    1.6153 C.ar      1 YZ9900      0.0353 
      10 C1        -0.4597   -1.5643    1.3842 C.ar      1 YZ9900      0.1519 
      11 C7         0.9692    0.3401    1.5592 C.ar      1 YZ9900      0.3521 
      12 C12        3.4429    0.1669    2.1240 C.2       1 YZ9900      0.3476 
      13 O4        -3.1618   -3.9558    1.1436 O.3       1 YZ9900     -0.2865 
      14 O5         1.0684    1.5014    1.5444 O.2       1 YZ9900     -0.2442 
      15 C10       -0.8815   -4.3377    1.5156 C.ar      1 YZ9900      0.0422 
      16 C9         2.1378   -0.5085    1.8265 C.ar      1 YZ9900      0.1515 
      17 C8        -1.9360   -3.4241    1.2897 C.ar      1 YZ9900      0.1988 
      18 H31        4.6325    0.4088    4.9390 H         1 YZ9900      0.0000 
      19 H32        5.0914    2.1195    4.7635 H         1 YZ9900      0.0000 
      20 H33        4.0043    1.6206    6.0816 H         1 YZ9900      0.0000 
      21 H112       2.7755    2.7014    4.2405 H         1 YZ9900      0.0000 
      22 H113       2.2910    1.0015    4.4509 H         1 YZ9900      0.0000 
      23 H6         1.2731   -4.5173    1.8540 H         1 YZ9900      0.0000 
      24 H5         2.8732   -2.5121    1.8963 H         1 YZ9900      0.0000 
      25 H4        -2.6190   -1.3291    1.0347 H         1 YZ9900      0.0000 
      26 HO4       -3.4703   -4.2871    1.9901 H         1 YZ9900      0.0000 
      27 H10       -1.0794   -5.3985    1.5615 H         1 YZ9900      0.0000 
@<TRIPOS>BOND
       1       13       17 1        
       2        7       17 ar       
       3        7       10 ar       
       4        8       10 ar       
       5        8       11 ar       
       6       14       11 2        
       7       17       15 ar       
       8       10        9 ar       
       9       11       16 ar       
      10        2        4 1        
      11        2        1 1        
      12       15        5 ar       
      13        9        5 ar       
      14        9        6 ar       
      15       16        6 ar       
      16       16       12 1        
      17        4       12 1        
      18       12        3 2        
      19       18        1 1        
      20       19        1 1        
      21       20        1 1        
      22       21        2 1        
      23       22        2 1        
      24       23        5 1        
      25       24        6 1        
      26       25        7 1        
      27       26       13 1        
      28       27       15 1        
@<TRIPOS>SUBSTRUCTURE
 1 YZ9900 10 RESIDUE 4 A YZ9900 0 ROOT

