#        scan_R01_S0030_C0000_L00001_S0001_C0002_G0010_E0001.mol2
#        Mon Jun 19 14:13:25 2017
#        Descriptor:     27    16    19     3     3     4
#        Energy - RMSD - RMSD MassCentre:     -45.5239    999.9999    999.9999
#        Receptor:       1  Surface Point:    30  Conformer:     0
#        Ligand:         1  Surface Point:     1  Conformer:     2
#        BUDE Formal Charge: 0
#        ATOM Count: 27
#        Heavy ATOM Count: 17
@<TRIPOS>MOLECULE
pdb1gcz_ligA.pdb_scan_R01_S0030_C0000_L00001_S0001_C0002_G0010_E0001
27 28 1 0 0
SMALL
GASTEIGER
@<TRIPOS>ATOM
       1 C3        -5.6631   -1.0794   -0.4339 C.3       1 YZ9900      0.0513 
       2 C11       -4.4258   -1.8961   -0.0723 C.3       1 YZ9900      0.2089 
       3 O1        -2.0538   -2.7467    0.6773 O.2       1 YZ9900     -0.2447 
       4 O2        -3.3834   -1.0160    0.3562 O.3       1 YZ9900     -0.4453 
       5 C6         2.4179   -0.8398    2.3681 C.ar      1 YZ9900      0.0063 
       6 C5         0.0856   -1.2079    1.5358 C.ar      1 YZ9900      0.0160 
       7 C4         2.0021    1.9139    2.4426 C.ar      1 YZ9900      0.0796 
       8 O3        -0.2523    1.6185    1.6428 O.2       1 YZ9900     -0.4208 
       9 C2         1.1791   -0.3164    1.9829 C.ar      1 YZ9900      0.0353 
      10 C1         0.9702    1.0673    2.0203 C.ar      1 YZ9900      0.1519 
      11 C7        -1.2783    0.7753    1.2228 C.ar      1 YZ9900      0.3521 
      12 C12       -2.2032   -1.5619    0.7195 C.2       1 YZ9900      0.3476 
      13 O4         4.2230    2.2638    3.2351 O.3       1 YZ9900     -0.2865 
      14 O5        -2.3408    1.2784    0.8966 O.2       1 YZ9900     -0.2442 
      15 C10        3.4464    0.0113    2.7896 C.ar      1 YZ9900      0.0422 
      16 C9        -1.0939   -0.6922    1.1703 C.ar      1 YZ9900      0.1515 
      17 C8         3.2438    1.3958    2.8293 C.ar      1 YZ9900      0.1988 
      18 H31       -5.4218   -0.3971   -1.2464 H         1 YZ9900      0.0000 
      19 H32       -6.4605   -1.7500   -0.7473 H         1 YZ9900      0.0000 
      20 H33       -5.9875   -0.5100    0.4345 H         1 YZ9900      0.0000 
      21 H112      -4.0920   -2.4552   -0.9440 H         1 YZ9900      0.0000 
      22 H113      -4.6691   -2.5876    0.7316 H         1 YZ9900      0.0000 
      23 H6         2.5863   -1.9063    2.3418 H         1 YZ9900      0.0000 
      24 H5         0.2568   -2.2740    1.5105 H         1 YZ9900      0.0000 
      25 H4         1.8362    2.9808    2.4698 H         1 YZ9900      0.0000 
      26 HO4        3.9162    3.1825    3.1832 H         1 YZ9900      0.0000 
      27 H10        4.3933   -0.4182    3.0818 H         1 YZ9900      0.0000 
@<TRIPOS>BOND
       1       13       17 1        
       2        7       17 ar       
       3        7       10 ar       
       4        8       10 ar       
       5        8       11 ar       
       6       14       11 2        
       7       17       15 ar       
       8       10        9 ar       
       9       11       16 ar       
      10        2        4 1        
      11        2        1 1        
      12       15        5 ar       
      13        9        5 ar       
      14        9        6 ar       
      15       16        6 ar       
      16       16       12 1        
      17        4       12 1        
      18       12        3 2        
      19       18        1 1        
      20       19        1 1        
      21       20        1 1        
      22       21        2 1        
      23       22        2 1        
      24       23        5 1        
      25       24        6 1        
      26       25        7 1        
      27       26       13 1        
      28       27       15 1        
@<TRIPOS>SUBSTRUCTURE
 1 YZ9900 10 RESIDUE 4 A YZ9900 0 ROOT

