#        scan_R01_S0031_C0000_L00001_S0001_C0000_G0010_E0001.mol2
#        Mon Jun 19 14:41:43 2017
#        Descriptor:      4    13    20     3     3     6
#        Energy - RMSD - RMSD MassCentre:     -42.1135    999.9999    999.9999
#        Receptor:       1  Surface Point:    31  Conformer:     0
#        Ligand:         1  Surface Point:     1  Conformer:     0
#        BUDE Formal Charge: 0
#        ATOM Count: 27
#        Heavy ATOM Count: 17
@<TRIPOS>MOLECULE
pdb1gcz_ligA.pdb_scan_R01_S0031_C0000_L00001_S0001_C0000_G0010_E0001
27 28 1 0 0
SMALL
GASTEIGER
@<TRIPOS>ATOM
       1 C3         0.6174    4.6583    7.5363 C.3       1 YZ9900      0.0513 
       2 C11       -0.0673    3.4234    7.0245 C.3       1 YZ9900      0.2089 
       3 O1         0.4375    4.4265    3.7927 O.2       1 YZ9900     -0.2447 
       4 O2        -0.5811    3.6743    5.6556 O.3       1 YZ9900     -0.4453 
       5 C6         3.2226    0.2468    2.2690 C.ar      1 YZ9900      0.0063 
       6 C5         1.6354    1.9354    3.2637 C.ar      1 YZ9900      0.0160 
       7 C4         1.3883   -1.9012    3.0764 C.ar      1 YZ9900      0.0796 
       8 O3        -0.0530   -0.2055    3.9909 O.2       1 YZ9900     -0.4208 
       9 C2         2.0081    0.5235    2.9407 C.ar      1 YZ9900      0.0353 
      10 C1         1.1285   -0.5349    3.3248 C.ar      1 YZ9900      0.1519 
      11 C7        -0.3674    1.0189    4.3481 C.ar      1 YZ9900      0.3521 
      12 C12        0.1101    3.5130    4.4872 C.2       1 YZ9900      0.3476 
      13 O4         2.9857   -3.3911    2.1115 O.3       1 YZ9900     -0.2865 
      14 O5        -1.3536    1.1887    4.9458 O.2       1 YZ9900     -0.2442 
      15 C10        3.5333   -1.1172    1.9963 C.ar      1 YZ9900      0.0422 
      16 C9         0.5051    2.1495    4.0050 C.ar      1 YZ9900      0.1515 
      17 C8         2.6296   -2.1269    2.3977 C.ar      1 YZ9900      0.1988 
      18 H31        1.4319    4.9280    6.8639 H         1 YZ9900      0.0000 
      19 H32       -0.0999    5.4776    7.5846 H         1 YZ9900      0.0000 
      20 H33        1.0168    4.4659    8.5321 H         1 YZ9900      0.0000 
      21 H112      -0.8977    3.1690    7.6832 H         1 YZ9900      0.0000 
      22 H113       0.6434    2.5973    7.0001 H         1 YZ9900      0.0000 
      23 H6         3.8909    1.0417    1.9732 H         1 YZ9900      0.0000 
      24 H5         2.2406    2.7620    2.9220 H         1 YZ9900      0.0000 
      25 H4         0.7181   -2.6959    3.3689 H         1 YZ9900      0.0000 
      26 HO4        3.7164   -3.6537    2.6760 H         1 YZ9900      0.0000 
      27 H10        4.4503   -1.3766    1.4880 H         1 YZ9900      0.0000 
@<TRIPOS>BOND
       1       13       17 1        
       2        7       17 ar       
       3        7       10 ar       
       4        8       10 ar       
       5        8       11 ar       
       6       14       11 2        
       7       17       15 ar       
       8       10        9 ar       
       9       11       16 ar       
      10        2        4 1        
      11        2        1 1        
      12       15        5 ar       
      13        9        5 ar       
      14        9        6 ar       
      15       16        6 ar       
      16       16       12 1        
      17        4       12 1        
      18       12        3 2        
      19       18        1 1        
      20       19        1 1        
      21       20        1 1        
      22       21        2 1        
      23       22        2 1        
      24       23        5 1        
      25       24        6 1        
      26       25        7 1        
      27       26       13 1        
      28       27       15 1        
@<TRIPOS>SUBSTRUCTURE
 1 YZ9900 10 RESIDUE 4 A YZ9900 0 ROOT

