#        scan_R01_S0031_C0000_L00001_S0001_C0002_G0010_E0001.mol2
#        Mon Jun 19 14:41:45 2017
#        Descriptor:     25    30    30     3     3     7
#        Energy - RMSD - RMSD MassCentre:     -38.3171    999.9999    999.9999
#        Receptor:       1  Surface Point:    31  Conformer:     0
#        Ligand:         1  Surface Point:     1  Conformer:     2
#        BUDE Formal Charge: 0
#        ATOM Count: 27
#        Heavy ATOM Count: 17
@<TRIPOS>MOLECULE
pdb1gcz_ligA.pdb_scan_R01_S0031_C0000_L00001_S0001_C0002_G0010_E0001
27 28 1 0 0
SMALL
GASTEIGER
@<TRIPOS>ATOM
       1 C3        -0.2982    4.8675   11.1646 C.3       1 YZ9900      0.0513 
       2 C11        0.6841    5.1009   10.0204 C.3       1 YZ9900      0.2089 
       3 O1         2.1251    4.9836    7.8245 O.2       1 YZ9900     -0.2447 
       4 O2         0.5418    4.0591    9.0512 O.3       1 YZ9900     -0.4453 
       5 C6         2.6703    1.9903    3.6732 C.ar      1 YZ9900      0.0063 
       6 C5         1.9984    3.0568    5.8362 C.ar      1 YZ9900      0.0160 
       7 C4         0.8067   -0.0462    4.0494 C.ar      1 YZ9900      0.0796 
       8 O3         0.1200    0.9370    6.1401 O.2       1 YZ9900     -0.4208 
       9 C2         1.8687    1.9890    4.8197 C.ar      1 YZ9900      0.0353 
      10 C1         0.9323    0.9657    5.0088 C.ar      1 YZ9900      0.1519 
      11 C7         0.2458    1.9442    7.0940 C.ar      1 YZ9900      0.3521 
      12 C12        1.3346    4.0976    7.9591 C.2       1 YZ9900      0.3476 
      13 O4         1.4469   -1.0612    1.9896 O.3       1 YZ9900     -0.2865 
      14 O5        -0.4752    1.9003    8.0772 O.2       1 YZ9900     -0.2442 
      15 C10        2.5405    0.9760    2.7170 C.ar      1 YZ9900      0.0422 
      16 C9         1.2246    3.0418    6.9279 C.ar      1 YZ9900      0.1515 
      17 C8         1.6060   -0.0501    2.9002 C.ar      1 YZ9900      0.1988 
      18 H31       -0.0810    3.9127   11.6391 H         1 YZ9900      0.0000 
      19 H32       -0.1992    5.6673   11.8954 H         1 YZ9900      0.0000 
      20 H33       -1.3134    4.8563   10.7735 H         1 YZ9900      0.0000 
      21 H112       1.7007    5.0983   10.4080 H         1 YZ9900      0.0000 
      22 H113       0.4760    6.0610    9.5530 H         1 YZ9900      0.0000 
      23 H6         3.3948    2.7765    3.5206 H         1 YZ9900      0.0000 
      24 H5         2.7238    3.8417    5.6811 H         1 YZ9900      0.0000 
      25 H4         0.0828   -0.8335    4.1997 H         1 YZ9900      0.0000 
      26 HO4        0.7711   -1.6914    2.2850 H         1 YZ9900      0.0000 
      27 H10        3.1714    1.0002    1.8407 H         1 YZ9900      0.0000 
@<TRIPOS>BOND
       1       13       17 1        
       2        7       17 ar       
       3        7       10 ar       
       4        8       10 ar       
       5        8       11 ar       
       6       14       11 2        
       7       17       15 ar       
       8       10        9 ar       
       9       11       16 ar       
      10        2        4 1        
      11        2        1 1        
      12       15        5 ar       
      13        9        5 ar       
      14        9        6 ar       
      15       16        6 ar       
      16       16       12 1        
      17        4       12 1        
      18       12        3 2        
      19       18        1 1        
      20       19        1 1        
      21       20        1 1        
      22       21        2 1        
      23       22        2 1        
      24       23        5 1        
      25       24        6 1        
      26       25        7 1        
      27       26       13 1        
      28       27       15 1        
@<TRIPOS>SUBSTRUCTURE
 1 YZ9900 10 RESIDUE 4 A YZ9900 0 ROOT

