#        1GCZ_R01_S0001_C0000_L00004_S0001_C0008_G0010_E0001.mol2
#        Tue Jun  6 14:05:26 2017
#        Descriptor:     13    14    22    10     6    14
#        Energy - RMSD - RMSD MassCentre:     -62.1595    999.9999    999.9999
#        Receptor:       1  Surface Point:     1  Conformer:     0
#        Ligand:         4  Surface Point:     1  Conformer:     8
#        BUDE Formal Charge: 0
#        ATOM Count: 46
#        Heavy ATOM Count: 28
@<TRIPOS>MOLECULE
ZINC61563277_1GCZ_R01_S0001_C0000_L00004_S0001_C0008_G0010_E0001
 46 49 0 0 0
SMALL
USER_CHARGES
@<TRIPOS>ATOM
       1 C1         2.5953    3.2818    6.5269 C.3       1 <0>        -0.1051 
       2 C2         1.6093    2.3956    5.8041 C.2       1 <0>         0.1324 
       3 C3         0.2844    2.3686    6.0024 C.2       1 <0>        -0.1714 
       4 C4        -0.2921    1.3324    5.0784 C.ar      1 <0>        -0.0773 
       5 C5        -1.5759    0.8282    4.8388 C.ar      1 <0>        -0.0675 
       6 C6        -1.6889   -0.1303    3.8245 C.ar      1 <0>        -0.1361 
       7 C7        -0.5719   -0.5151    3.0715 C.ar      1 <0>        -0.0920 
       8 C8         0.7025    0.0090    3.3198 C.ar      1 <0>        -0.1265 
       9 C9         0.8465    0.9091    4.3825 C.ar      1 <0>         0.1084 
      10 N1         1.9441    1.5158    4.8824 N.pl3     1 <0>        -0.4675 
      11 C10        3.3253    1.2467    4.4277 C.3       1 <0>         0.1242 
      12 C11        3.8473    0.0043    5.1087 C.2       1 <0>         0.4463 
      13 O1         4.0839   -0.9746    4.4655 O.2       1 <0>        -0.4704 
      14 O2         4.0463    0.0002    6.4441 O.3       1 <0>        -0.3437 
      15 C12        4.5419   -1.1993    7.0446 C.3       1 <0>         0.1567 
      16 C13        3.5372   -2.3099    6.8519 C.2       1 <0>         0.2874 
      17 N2         3.5258   -3.4492    6.1854 N.2       1 <0>        -0.5106 
      18 C14        2.3008   -4.0998    6.3754 C.2       1 <0>         0.2609 
      19 N3         1.5648   -3.3763    7.1326 N.2       1 <0>        -0.3200 
      20 O3         2.2883   -2.2241    7.4630 O.3       1 <0>        -0.0928 
      21 C15        1.9107   -5.4407    5.8012 C.3       1 <0>         0.0037 
      22 C16        2.2536   -6.5295    6.7897 C.ar      1 <0>        -0.0973 
      23 C17        3.5060   -7.1541    6.7530 C.ar      1 <0>        -0.0995 
      24 C18        3.8343   -8.1484    7.6823 C.ar      1 <0>        -0.1207 
      25 C19        2.9032   -8.5441    8.6451 C.ar      1 <0>        -0.1122 
      26 C20        1.6448   -7.9318    8.6810 C.ar      1 <0>        -0.1201 
      27 C21        1.3208   -6.9365    7.7512 C.ar      1 <0>        -0.1046 
      28 Br1       -0.7212    3.4221    7.1913 Br        1 <0>        -0.0155 
      29 H1         3.1091    3.9146    5.8063 H         1 <0>         0.0903 
      30 H2         3.3217    2.6636    7.0502 H         1 <0>         0.0953 
      31 H3         2.0646    3.9046    7.2438 H         1 <0>         0.0712 
      32 H4        -2.4493    1.1448    5.3897 H         1 <0>         0.1274 
      33 H5        -2.6621   -0.5522    3.6215 H         1 <0>         0.1276 
      34 H6        -0.6869   -1.2314    2.2714 H         1 <0>         0.1296 
      35 H7         1.5159   -0.2942    2.6775 H         1 <0>         0.1206 
      36 H8         3.9610    2.0925    4.6807 H         1 <0>         0.1394 
      37 H9         3.3306    1.0996    3.3497 H         1 <0>         0.1404 
      38 H10        4.7003   -1.0330    8.1081 H         1 <0>         0.1240 
      39 H11        5.4839   -1.4763    6.5759 H         1 <0>         0.1139 
      40 H12        2.4534   -5.6088    4.8731 H         1 <0>         0.1085 
      41 H13        0.8409   -5.4528    5.6040 H         1 <0>         0.1144 
      42 H14        4.2319   -6.8775    6.0028 H         1 <0>         0.1277 
      43 H15        4.8055   -8.6191    7.6457 H         1 <0>         0.1259 
      44 H16        3.1506   -9.3090    9.3663 H         1 <0>         0.1247 
      45 H17        0.9233   -8.2300    9.4272 H         1 <0>         0.1255 
      46 H18        0.3394   -6.4868    7.7822 H         1 <0>         0.1245 
@<TRIPOS>BOND
       1        1        2 1        
       2        1       29 1        
       3        1       30 1        
       4        1       31 1        
       5        2       10 1        
       6        2        3 2        
       7        3        4 1        
       8        3       28 1        
       9        4        9 ar       
      10        4        5 ar       
      11        5        6 ar       
      12        5       32 1        
      13        6        7 ar       
      14        6       33 1        
      15        7        8 ar       
      16        7       34 1        
      17        8        9 ar       
      18        8       35 1        
      19        9       10 1        
      20       10       11 1        
      21       11       12 1        
      22       11       36 1        
      23       11       37 1        
      24       12       13 2        
      25       12       14 1        
      26       14       15 1        
      27       15       16 1        
      28       15       38 1        
      29       15       39 1        
      30       16       20 1        
      31       16       17 2        
      32       17       18 1        
      33       18       19 2        
      34       18       21 1        
      35       19       20 1        
      36       21       22 1        
      37       21       40 1        
      38       21       41 1        
      39       22       27 ar       
      40       22       23 ar       
      41       23       24 ar       
      42       23       42 1        
      43       24       25 ar       
      44       24       43 1        
      45       25       26 ar       
      46       25       44 1        
      47       26       27 ar       
      48       26       45 1        
      49       27       46 1        

