#        scan_R01_S0031_C0000_L00001_S0001_C0002_G0010_E0001.mol2
#        Mon Jun 19 14:13:27 2017
#        Descriptor:     18    31    17     3     2     6
#        Energy - RMSD - RMSD MassCentre:     -37.9127    999.9999    999.9999
#        Receptor:       1  Surface Point:    31  Conformer:     0
#        Ligand:         1  Surface Point:     1  Conformer:     2
#        BUDE Formal Charge: 0
#        ATOM Count: 27
#        Heavy ATOM Count: 17
@<TRIPOS>MOLECULE
pdb1gcz_ligA.pdb_scan_R01_S0031_C0000_L00001_S0001_C0002_G0010_E0001
27 28 1 0 0
SMALL
GASTEIGER
@<TRIPOS>ATOM
       1 C3         6.3311   -0.8581    9.0486 C.3       1 YZ9900      0.0513 
       2 C11        6.3762   -0.8950    7.5237 C.3       1 YZ9900      0.2089 
       3 O1         5.8473   -0.8464    4.9489 O.2       1 YZ9900     -0.2447 
       4 O2         5.0644   -0.6644    7.0032 O.3       1 YZ9900     -0.4453 
       5 C6         1.8285   -0.1688    1.8055 C.ar      1 YZ9900      0.0063 
       6 C5         3.3853   -0.4176    3.7502 C.ar      1 YZ9900      0.0160 
       7 C4        -0.3208    0.2574    3.5260 C.ar      1 YZ9900      0.0796 
       8 O3         1.1320    0.0269    5.4353 O.2       1 YZ9900     -0.4208 
       9 C2         2.0365   -0.1809    3.1888 C.ar      1 YZ9900      0.0353 
      10 C1         0.9566    0.0331    4.0534 C.ar      1 YZ9900      0.1519 
      11 C7         2.4034   -0.1963    5.9589 C.ar      1 YZ9900      0.3521 
      12 C12        4.9069   -0.6607    5.6623 C.2       1 YZ9900      0.3476 
      13 O4        -1.8027    0.4942    1.6738 O.3       1 YZ9900     -0.2865 
      14 O5         2.5352   -0.1977    7.1718 O.2       1 YZ9900     -0.2442 
      15 C10        0.5490    0.0559    1.2835 C.ar      1 YZ9900      0.0422 
      16 C9         3.5685   -0.4264    5.0758 C.ar      1 YZ9900      0.1515 
      17 C8        -0.5350    0.2707    2.1427 C.ar      1 YZ9900      0.1988 
      18 H31        5.6661   -1.6398    9.4101 H         1 YZ9900      0.0000 
      19 H32        7.3315   -1.0203    9.4443 H         1 YZ9900      0.0000 
      20 H33        5.9636    0.1120    9.3765 H         1 YZ9900      0.0000 
      21 H112       6.7303   -1.8696    7.1941 H         1 YZ9900      0.0000 
      22 H113       7.0506   -0.1219    7.1614 H         1 YZ9900      0.0000 
      23 H6         2.6569   -0.3333    1.1323 H         1 YZ9900      0.0000 
      24 H5         4.2119   -0.5818    3.0748 H         1 YZ9900      0.0000 
      25 H4        -1.1509    0.4221    4.1971 H         1 YZ9900      0.0000 
      26 HO4       -2.4294    0.6047    2.4060 H         1 YZ9900      0.0000 
      27 H10        0.4153    0.0602    0.2118 H         1 YZ9900      0.0000 
@<TRIPOS>BOND
       1       13       17 1        
       2        7       17 ar       
       3        7       10 ar       
       4        8       10 ar       
       5        8       11 ar       
       6       14       11 2        
       7       17       15 ar       
       8       10        9 ar       
       9       11       16 ar       
      10        2        4 1        
      11        2        1 1        
      12       15        5 ar       
      13        9        5 ar       
      14        9        6 ar       
      15       16        6 ar       
      16       16       12 1        
      17        4       12 1        
      18       12        3 2        
      19       18        1 1        
      20       19        1 1        
      21       20        1 1        
      22       21        2 1        
      23       22        2 1        
      24       23        5 1        
      25       24        6 1        
      26       25        7 1        
      27       26       13 1        
      28       27       15 1        
@<TRIPOS>SUBSTRUCTURE
 1 YZ9900 10 RESIDUE 4 A YZ9900 0 ROOT

