#        scan_R01_S0031_C0000_L00001_S0001_C0003_G0010_E0001.mol2
#        Mon Jun 19 14:41:45 2017
#        Descriptor:      6    22    13     3     2     5
#        Energy - RMSD - RMSD MassCentre:     -42.6160    999.9999    999.9999
#        Receptor:       1  Surface Point:    31  Conformer:     0
#        Ligand:         1  Surface Point:     1  Conformer:     3
#        BUDE Formal Charge: 0
#        ATOM Count: 27
#        Heavy ATOM Count: 17
@<TRIPOS>MOLECULE
pdb1gcz_ligA.pdb_scan_R01_S0031_C0000_L00001_S0001_C0003_G0010_E0001
27 28 1 0 0
SMALL
GASTEIGER
@<TRIPOS>ATOM
       1 C3         0.0435    5.7899    6.8188 C.3       1 YZ9900      0.0513 
       2 C11       -1.2203    5.1787    6.2207 C.3       1 YZ9900      0.2089 
       3 O1         0.5219    4.8202    4.2847 O.2       1 YZ9900     -0.2447 
       4 O2        -0.9151    3.8917    5.6772 O.3       1 YZ9900     -0.4453 
       5 C6         2.5170    0.9824    1.4952 C.ar      1 YZ9900      0.0063 
       6 C5         1.2464    2.4197    3.1036 C.ar      1 YZ9900      0.0160 
       7 C4         1.2551   -1.3009    2.4728 C.ar      1 YZ9900      0.0796 
       8 O3         0.0047    0.0340    4.0424 O.2       1 YZ9900     -0.4208 
       9 C2         1.5781    1.0982    2.5256 C.ar      1 YZ9900      0.0353 
      10 C1         0.9440   -0.0491    3.0170 C.ar      1 YZ9900      0.1519 
      11 C7        -0.3041    1.2801    4.5830 C.ar      1 YZ9900      0.3521 
      12 C12       -0.0033    3.8238    4.6839 C.2       1 YZ9900      0.3476 
      13 O4         2.4653   -2.6691    0.9410 O.3       1 YZ9900     -0.2865 
      14 O5        -1.1293    1.3307    5.4802 O.2       1 YZ9900     -0.2442 
      15 C10        2.8245   -0.2720    0.9547 C.ar      1 YZ9900      0.0422 
      16 C9         0.3460    2.5145    4.0891 C.ar      1 YZ9900      0.1515 
      17 C8         2.1938   -1.4230    1.4415 C.ar      1 YZ9900      0.1988 
      18 H31        0.7936    5.9056    6.0392 H         1 YZ9900      0.0000 
      19 H32       -0.1915    6.7633    7.2443 H         1 YZ9900      0.0000 
      20 H33        0.4279    5.1359    7.5986 H         1 YZ9900      0.0000 
      21 H112      -1.5978    5.8248    5.4311 H         1 YZ9900      0.0000 
      22 H113      -1.9756    5.0740    6.9968 H         1 YZ9900      0.0000 
      23 H6         3.0103    1.8631    1.1112 H         1 YZ9900      0.0000 
      24 H5         1.7411    3.2988    2.7176 H         1 YZ9900      0.0000 
      25 H4         0.7632   -2.1832    2.8551 H         1 YZ9900      0.0000 
      26 HO4        1.9529   -3.3492    1.4056 H         1 YZ9900      0.0000 
      27 H10        3.5530   -0.3341    0.1598 H         1 YZ9900      0.0000 
@<TRIPOS>BOND
       1       13       17 1        
       2        7       17 ar       
       3        7       10 ar       
       4        8       10 ar       
       5        8       11 ar       
       6       14       11 2        
       7       17       15 ar       
       8       10        9 ar       
       9       11       16 ar       
      10        2        4 1        
      11        2        1 1        
      12       15        5 ar       
      13        9        5 ar       
      14        9        6 ar       
      15       16        6 ar       
      16       16       12 1        
      17        4       12 1        
      18       12        3 2        
      19       18        1 1        
      20       19        1 1        
      21       20        1 1        
      22       21        2 1        
      23       22        2 1        
      24       23        5 1        
      25       24        6 1        
      26       25        7 1        
      27       26       13 1        
      28       27       15 1        
@<TRIPOS>SUBSTRUCTURE
 1 YZ9900 10 RESIDUE 4 A YZ9900 0 ROOT

