#        scan_R01_S0032_C0000_L00001_S0001_C0000_G0010_E0001.mol2
#        Mon Jun 19 14:41:46 2017
#        Descriptor:      4    25    30     3     3     4
#        Energy - RMSD - RMSD MassCentre:     -44.1800    999.9999    999.9999
#        Receptor:       1  Surface Point:    32  Conformer:     0
#        Ligand:         1  Surface Point:     1  Conformer:     0
#        BUDE Formal Charge: 0
#        ATOM Count: 27
#        Heavy ATOM Count: 17
@<TRIPOS>MOLECULE
pdb1gcz_ligA.pdb_scan_R01_S0032_C0000_L00001_S0001_C0000_G0010_E0001
27 28 1 0 0
SMALL
GASTEIGER
@<TRIPOS>ATOM
       1 C3        -3.3988    1.4819   -0.5404 C.3       1 YZ9900      0.0513 
       2 C11       -2.6415    2.0226    0.6385 C.3       1 YZ9900      0.2089 
       3 O1        -1.7045   -1.1402    1.5465 O.2       1 YZ9900     -0.2447 
       4 O2        -2.5043    0.9621    1.6667 O.3       1 YZ9900     -0.4453 
       5 C6         3.4786   -0.3571    1.2798 C.ar      1 YZ9900      0.0063 
       6 C5         0.9751   -0.2801    1.5740 C.ar      1 YZ9900      0.0160 
       7 C4         3.7190    2.0085    3.0051 C.ar      1 YZ9900      0.0796 
       8 O3         1.3226    1.9865    3.2185 O.2       1 YZ9900     -0.4208 
       9 C2         2.3411    0.2622    1.8504 C.ar      1 YZ9900      0.0353 
      10 C1         2.4785    1.4118    2.6876 C.ar      1 YZ9900      0.1519 
      11 C7         0.1093    1.5719    2.9331 C.ar      1 YZ9900      0.3521 
      12 C12       -1.5138    0.0224    1.7362 C.2       1 YZ9900      0.3476 
      13 O4         6.0703    1.8287    2.6289 O.3       1 YZ9900     -0.2865 
      14 O5        -0.7970    2.1479    3.3865 O.2       1 YZ9900     -0.2442 
      15 C10        4.7551    0.2079    1.5673 C.ar      1 YZ9900      0.0422 
      16 C9        -0.1022    0.4101    2.0598 C.ar      1 YZ9900      0.1515 
      17 C8         4.8366    1.3461    2.4012 C.ar      1 YZ9900      0.1988 
      18 H31       -2.8714    0.6187   -0.9469 H         1 YZ9900      0.0000 
      19 H32       -4.3974    1.1810   -0.2235 H         1 YZ9900      0.0000 
      20 H33       -3.4777    2.2533   -1.3063 H         1 YZ9900      0.0000 
      21 H112      -3.1825    2.8697    1.0603 H         1 YZ9900      0.0000 
      22 H113      -1.6518    2.3471    0.3170 H         1 YZ9900      0.0000 
      23 H6         3.3827   -1.2279    0.6484 H         1 YZ9900      0.0000 
      24 H5         0.8425   -1.1900    1.0075 H         1 YZ9900      0.0000 
      25 H4         3.8152    2.8770    3.6397 H         1 YZ9900      0.0000 
      26 HO4        6.4053    2.2420    1.8298 H         1 YZ9900      0.0000 
      27 H10        5.6511   -0.2293    1.1521 H         1 YZ9900      0.0000 
@<TRIPOS>BOND
       1       13       17 1        
       2        7       17 ar       
       3        7       10 ar       
       4        8       10 ar       
       5        8       11 ar       
       6       14       11 2        
       7       17       15 ar       
       8       10        9 ar       
       9       11       16 ar       
      10        2        4 1        
      11        2        1 1        
      12       15        5 ar       
      13        9        5 ar       
      14        9        6 ar       
      15       16        6 ar       
      16       16       12 1        
      17        4       12 1        
      18       12        3 2        
      19       18        1 1        
      20       19        1 1        
      21       20        1 1        
      22       21        2 1        
      23       22        2 1        
      24       23        5 1        
      25       24        6 1        
      26       25        7 1        
      27       26       13 1        
      28       27       15 1        
@<TRIPOS>SUBSTRUCTURE
 1 YZ9900 10 RESIDUE 4 A YZ9900 0 ROOT

