#        scan_R01_S0032_C0000_L00001_S0001_C0000_G0010_E0001.mol2
#        Mon Jun 19 14:13:28 2017
#        Descriptor:     21    29    11     3     3     4
#        Energy - RMSD - RMSD MassCentre:     -45.0732    999.9999    999.9999
#        Receptor:       1  Surface Point:    32  Conformer:     0
#        Ligand:         1  Surface Point:     1  Conformer:     0
#        BUDE Formal Charge: 0
#        ATOM Count: 27
#        Heavy ATOM Count: 17
@<TRIPOS>MOLECULE
pdb1gcz_ligA.pdb_scan_R01_S0032_C0000_L00001_S0001_C0000_G0010_E0001
27 28 1 0 0
SMALL
GASTEIGER
@<TRIPOS>ATOM
       1 C3        -3.2499    1.5940   -0.7606 C.3       1 YZ9900      0.0513 
       2 C11       -2.5522    2.0967    0.4708 C.3       1 YZ9900      0.2089 
       3 O1        -1.6968   -1.0980    1.3471 O.2       1 YZ9900     -0.2447 
       4 O2        -2.4814    1.0095    1.4776 O.3       1 YZ9900     -0.4453 
       5 C6         3.5005   -0.3663    1.3801 C.ar      1 YZ9900      0.0063 
       6 C5         0.9856   -0.2688    1.5408 C.ar      1 YZ9900      0.0160 
       7 C4         3.6704    1.9527    3.1755 C.ar      1 YZ9900      0.0796 
       8 O3         1.2658    1.9522    3.2589 O.2       1 YZ9900     -0.4208 
       9 C2         2.3400    0.2513    1.9041 C.ar      1 YZ9900      0.0353 
      10 C1         2.4430    1.3780    2.7765 C.ar      1 YZ9900      0.1519 
      11 C7         0.0657    1.5584    2.8980 C.ar      1 YZ9900      0.3521 
      12 C12       -1.5053    0.0574    1.5764 C.2       1 YZ9900      0.3476 
      13 O4         6.0367    1.7562    2.9221 O.3       1 YZ9900     -0.2865 
      14 O5        -0.8581    2.1330    3.3165 O.2       1 YZ9900     -0.2442 
      15 C10        4.7650    0.1771    1.7502 C.ar      1 YZ9900      0.0422 
      16 C9        -0.1095    0.4212    1.9853 C.ar      1 YZ9900      0.1515 
      17 C8         4.8125    1.2932    2.6160 C.ar      1 YZ9900      0.1988 
      18 H31       -2.7097    0.7354   -1.1599 H         1 YZ9900      0.0000 
      19 H32       -4.2671    1.2964   -0.5057 H         1 YZ9900      0.0000 
      20 H33       -3.2797    2.3851   -1.5098 H         1 YZ9900      0.0000 
      21 H112      -3.1070    2.9390    0.8842 H         1 YZ9900      0.0000 
      22 H113      -1.5435    2.4181    0.2114 H         1 YZ9900      0.0000 
      23 H6         3.4304   -1.2199    0.7225 H         1 YZ9900      0.0000 
      24 H5         0.8750   -1.1627    0.9450 H         1 YZ9900      0.0000 
      25 H4         3.7406    2.8041    3.8363 H         1 YZ9900      0.0000 
      26 HO4        6.4185    2.1855    2.1530 H         1 YZ9900      0.0000 
      27 H10        5.6779   -0.2596    1.3728 H         1 YZ9900      0.0000 
@<TRIPOS>BOND
       1       13       17 1        
       2        7       17 ar       
       3        7       10 ar       
       4        8       10 ar       
       5        8       11 ar       
       6       14       11 2        
       7       17       15 ar       
       8       10        9 ar       
       9       11       16 ar       
      10        2        4 1        
      11        2        1 1        
      12       15        5 ar       
      13        9        5 ar       
      14        9        6 ar       
      15       16        6 ar       
      16       16       12 1        
      17        4       12 1        
      18       12        3 2        
      19       18        1 1        
      20       19        1 1        
      21       20        1 1        
      22       21        2 1        
      23       22        2 1        
      24       23        5 1        
      25       24        6 1        
      26       25        7 1        
      27       26       13 1        
      28       27       15 1        
@<TRIPOS>SUBSTRUCTURE
 1 YZ9900 10 RESIDUE 4 A YZ9900 0 ROOT

