#        scan_R01_S0032_C0000_L00001_S0001_C0002_G0010_E0001.mol2
#        Mon Jun 19 14:41:46 2017
#        Descriptor:      8    19     2     3     3     4
#        Energy - RMSD - RMSD MassCentre:     -43.7794    999.9999    999.9999
#        Receptor:       1  Surface Point:    32  Conformer:     0
#        Ligand:         1  Surface Point:     1  Conformer:     2
#        BUDE Formal Charge: 0
#        ATOM Count: 27
#        Heavy ATOM Count: 17
@<TRIPOS>MOLECULE
pdb1gcz_ligA.pdb_scan_R01_S0032_C0000_L00001_S0001_C0002_G0010_E0001
27 28 1 0 0
SMALL
GASTEIGER
@<TRIPOS>ATOM
       1 C3         8.1241    2.6743    3.0436 C.3       1 YZ9900      0.0513 
       2 C11        7.4426    1.3530    2.6998 C.3       1 YZ9900      0.2089 
       3 O1         5.7542   -0.5793    2.1272 O.2       1 YZ9900     -0.2447 
       4 O2         6.0308    1.5576    2.5998 O.3       1 YZ9900     -0.4453 
       5 C6         0.6963   -1.2716    1.4722 C.ar      1 YZ9900      0.0063 
       6 C5         2.9997   -0.3840    1.8896 C.ar      1 YZ9900      0.0160 
       7 C4        -0.3990    1.2561    1.8876 C.ar      1 YZ9900      0.0796 
       8 O3         1.7952    2.1649    2.2984 O.2       1 YZ9900     -0.4208 
       9 C2         1.5357   -0.1959    1.7808 C.ar      1 YZ9900      0.0353 
      10 C1         0.9854    1.0743    1.9896 C.ar      1 YZ9900      0.1519 
      11 C7         3.1725    1.9827    2.3996 C.ar      1 YZ9900      0.3521 
      12 C12        5.2563    0.4932    2.3001 C.2       1 YZ9900      0.3476 
      13 O4        -2.5921    0.4104    1.4900 O.3       1 YZ9900     -0.2865 
      14 O5         3.8636    2.9509    2.6709 O.2       1 YZ9900     -0.2442 
      15 C10       -0.6874   -1.0841    1.3714 C.ar      1 YZ9900      0.0422 
      16 C9         3.7897    0.6547    2.1856 C.ar      1 YZ9900      0.1515 
      17 C8        -1.2439    0.1835    1.5790 C.ar      1 YZ9900      0.1988 
      18 H31        7.7517    3.0355    4.0001 H         1 YZ9900      0.0000 
      19 H32        9.1994    2.5213    3.1066 H         1 YZ9900      0.0000 
      20 H33        7.9060    3.4064    2.2689 H         1 YZ9900      0.0000 
      21 H112       7.6482    0.6240    3.4809 H         1 YZ9900      0.0000 
      22 H113       7.8232    0.9843    1.7496 H         1 YZ9900      0.0000 
      23 H6         1.1138   -2.2543    1.3098 H         1 YZ9900      0.0000 
      24 H5         3.4145   -1.3678    1.7267 H         1 YZ9900      0.0000 
      25 H4        -0.8189    2.2379    2.0494 H         1 YZ9900      0.0000 
      26 HO4       -2.8014    1.3383    1.6802 H         1 YZ9900      0.0000 
      27 H10       -1.3134   -1.9310    1.1320 H         1 YZ9900      0.0000 
@<TRIPOS>BOND
       1       13       17 1        
       2        7       17 ar       
       3        7       10 ar       
       4        8       10 ar       
       5        8       11 ar       
       6       14       11 2        
       7       17       15 ar       
       8       10        9 ar       
       9       11       16 ar       
      10        2        4 1        
      11        2        1 1        
      12       15        5 ar       
      13        9        5 ar       
      14        9        6 ar       
      15       16        6 ar       
      16       16       12 1        
      17        4       12 1        
      18       12        3 2        
      19       18        1 1        
      20       19        1 1        
      21       20        1 1        
      22       21        2 1        
      23       22        2 1        
      24       23        5 1        
      25       24        6 1        
      26       25        7 1        
      27       26       13 1        
      28       27       15 1        
@<TRIPOS>SUBSTRUCTURE
 1 YZ9900 10 RESIDUE 4 A YZ9900 0 ROOT

