#        scan_R01_S0032_C0000_L00001_S0001_C0003_G0010_E0001.mol2
#        Mon Jun 19 14:13:30 2017
#        Descriptor:      8    19     4     3     2     4
#        Energy - RMSD - RMSD MassCentre:     -44.4764    999.9999    999.9999
#        Receptor:       1  Surface Point:    32  Conformer:     0
#        Ligand:         1  Surface Point:     1  Conformer:     3
#        BUDE Formal Charge: 0
#        ATOM Count: 27
#        Heavy ATOM Count: 17
@<TRIPOS>MOLECULE
pdb1gcz_ligA.pdb_scan_R01_S0032_C0000_L00001_S0001_C0003_G0010_E0001
27 28 1 0 0
SMALL
GASTEIGER
@<TRIPOS>ATOM
       1 C3         7.5504    1.6867    3.8080 C.3       1 YZ9900      0.0513 
       2 C11        6.9333    2.5352    2.6998 C.3       1 YZ9900      0.2089 
       3 O1         6.0077    0.1420    2.1272 O.2       1 YZ9900     -0.2447 
       4 O2         5.5367    2.2446    2.5998 O.3       1 YZ9900     -0.4453 
       5 C6         1.4916   -2.2384    1.4722 C.ar      1 YZ9900      0.0063 
       6 C5         3.3525   -0.6166    1.8896 C.ar      1 YZ9900      0.0160 
       7 C4        -0.4022   -0.2378    1.8876 C.ar      1 YZ9900      0.0796 
       8 O3         1.3489    1.3666    2.2984 O.2       1 YZ9900     -0.4208 
       9 C2         1.9125   -0.9406    1.7808 C.ar      1 YZ9900      0.0353 
      10 C1         0.9609    0.0648    1.9896 C.ar      1 YZ9900      0.1519 
      11 C7         2.7054    1.6665    2.3996 C.ar      1 YZ9900      0.3521 
      12 C12        5.1730    0.9795    2.3001 C.2       1 YZ9900      0.3476 
      13 O4        -2.1738   -1.7826    1.4900 O.3       1 YZ9900     -0.2865 
      14 O5         3.0237    2.8126    2.6709 O.2       1 YZ9900     -0.2442 
      15 C10        0.1272   -2.5356    1.3714 C.ar      1 YZ9900      0.0422 
      16 C9         3.7396    0.6297    2.1856 C.ar      1 YZ9900      0.1515 
      17 C8        -0.8293   -1.5347    1.5790 C.ar      1 YZ9900      0.1988 
      18 H31        7.4261    0.6326    3.5685 H         1 YZ9900      0.0000 
      19 H32        8.6102    1.9175    3.8930 H         1 YZ9900      0.0000 
      20 H33        7.0540    1.9061    4.7509 H         1 YZ9900      0.0000 
      21 H112       7.4193    2.3064    1.7537 H         1 YZ9900      0.0000 
      22 H113       7.0680    3.5895    2.9319 H         1 YZ9900      0.0000 
      23 H6         2.2199   -3.0191    1.3098 H         1 YZ9900      0.0000 
      24 H5         4.0787   -1.3992    1.7267 H         1 YZ9900      0.0000 
      25 H4        -1.1326    0.5412    2.0494 H         1 YZ9900      0.0000 
      26 HO4       -2.6879   -0.9823    1.6802 H         1 YZ9900      0.0000 
      27 H10       -0.1714   -3.5455    1.1320 H         1 YZ9900      0.0000 
@<TRIPOS>BOND
       1       13       17 1        
       2        7       17 ar       
       3        7       10 ar       
       4        8       10 ar       
       5        8       11 ar       
       6       14       11 2        
       7       17       15 ar       
       8       10        9 ar       
       9       11       16 ar       
      10        2        4 1        
      11        2        1 1        
      12       15        5 ar       
      13        9        5 ar       
      14        9        6 ar       
      15       16        6 ar       
      16       16       12 1        
      17        4       12 1        
      18       12        3 2        
      19       18        1 1        
      20       19        1 1        
      21       20        1 1        
      22       21        2 1        
      23       22        2 1        
      24       23        5 1        
      25       24        6 1        
      26       25        7 1        
      27       26       13 1        
      28       27       15 1        
@<TRIPOS>SUBSTRUCTURE
 1 YZ9900 10 RESIDUE 4 A YZ9900 0 ROOT

