#        1GCZ_R01_S0001_C0000_L00004_S0001_C0009_G0010_E0001.mol2
#        Tue Jun  6 09:55:26 2017
#        Descriptor:     32     1    16     9     4    14
#        Energy - RMSD - RMSD MassCentre:     -68.5023    999.9999    999.9999
#        Receptor:       1  Surface Point:     1  Conformer:     0
#        Ligand:         4  Surface Point:     1  Conformer:     9
#        BUDE Formal Charge: 0
#        ATOM Count: 46
#        Heavy ATOM Count: 28
@<TRIPOS>MOLECULE
ZINC61563277_1GCZ_R01_S0001_C0000_L00004_S0001_C0009_G0010_E0001
 46 49 0 0 0
SMALL
USER_CHARGES
@<TRIPOS>ATOM
       1 C1         3.5222   -7.8499    5.8003 C.3       1 <0>        -0.1051 
       2 C2         2.4134   -7.8549    6.8252 C.2       1 <0>         0.1324 
       3 C3         2.2988   -8.7044    7.8552 C.2       1 <0>        -0.1714 
       4 C4         1.0422   -8.3485    8.5996 C.ar      1 <0>        -0.0773 
       5 C5         0.3762   -8.8666    9.7167 C.ar      1 <0>        -0.0675 
       6 C6        -0.7782   -8.1869   10.1239 C.ar      1 <0>        -0.1361 
       7 C7        -1.1999   -7.0261    9.4624 C.ar      1 <0>        -0.0920 
       8 C8        -0.5137   -6.5176    8.3529 C.ar      1 <0>        -0.1265 
       9 C9         0.5969   -7.2300    7.8849 C.ar      1 <0>         0.1084 
      10 N1         1.3985   -7.0150    6.8199 N.pl3     1 <0>        -0.4675 
      11 C10        1.1771   -5.9574    5.8102 C.3       1 <0>         0.1242 
      12 C11        1.6229   -4.6269    6.3676 C.2       1 <0>         0.4463 
      13 O1         0.8181   -3.7709    6.5854 O.2       1 <0>        -0.4704 
      14 O2         2.9306   -4.4051    6.6196 O.3       1 <0>        -0.3437 
      15 C12        3.3051   -3.1297    7.1470 C.3       1 <0>         0.1567 
      16 C13        2.9697   -2.0527    6.1432 C.2       1 <0>         0.2874 
      17 N2         2.1247   -1.0390    6.1135 N.2       1 <0>        -0.5106 
      18 C14        2.2508   -0.3494    4.9016 C.2       1 <0>         0.2609 
      19 N3         3.1445   -0.9280    4.1911 N.2       1 <0>        -0.3200 
      20 O3         3.6334   -2.0194    4.9189 O.3       1 <0>        -0.0928 
      21 C15        1.4777    0.8835    4.4988 C.3       1 <0>         0.0037 
      22 C16        0.2361    0.4735    3.7434 C.ar      1 <0>        -0.0973 
      23 C17        0.2647    0.3365    2.3504 C.ar      1 <0>        -0.0995 
      24 C18       -0.8792   -0.0648    1.6499 C.ar      1 <0>        -0.1207 
      25 C19       -2.0710   -0.3117    2.3349 C.ar      1 <0>        -0.1122 
      26 C20       -2.1100   -0.1661    3.7267 C.ar      1 <0>        -0.1201 
      27 C21       -0.9636    0.2335    4.4239 C.ar      1 <0>        -0.1046 
      28 Br1        3.4726  -10.0916    8.3366 Br        1 <0>        -0.0155 
      29 H1         4.0388   -6.8930    5.8307 H         1 <0>         0.0903 
      30 H2         3.1000   -8.0035    4.8095 H         1 <0>         0.0953 
      31 H3         4.2253   -8.6495    6.0237 H         1 <0>         0.0712 
      32 H4         0.7134   -9.7400   10.2552 H         1 <0>         0.1274 
      33 H5        -1.3262   -8.5667   10.9735 H         1 <0>         0.1276 
      34 H6        -2.0743   -6.4981    9.8131 H         1 <0>         0.1296 
      35 H7        -0.8626   -5.5954    7.9125 H         1 <0>         0.1206 
      36 H8         0.1190   -5.9097    5.5620 H         1 <0>         0.1394 
      37 H9         1.7494   -6.1858    4.9134 H         1 <0>         0.1404 
      38 H10        4.3747   -3.1204    7.3461 H         1 <0>         0.1240 
      39 H11        2.7617   -2.9467    8.0715 H         1 <0>         0.1139 
      40 H12        2.1001    1.5093    3.8624 H         1 <0>         0.1085 
      41 H13        1.1938    1.4400    5.3895 H         1 <0>         0.1144 
      42 H14        1.1705    0.5438    1.8001 H         1 <0>         0.1277 
      43 H15       -0.8423   -0.1708    0.5758 H         1 <0>         0.1259 
      44 H16       -2.9565   -0.6236    1.8011 H         1 <0>         0.1247 
      45 H17       -3.0276   -0.3616    4.2618 H         1 <0>         0.1255 
      46 H18       -1.0159    0.3577    5.4955 H         1 <0>         0.1245 
@<TRIPOS>BOND
       1        1        2 1        
       2        1       29 1        
       3        1       30 1        
       4        1       31 1        
       5        2       10 1        
       6        2        3 2        
       7        3        4 1        
       8        3       28 1        
       9        4        9 ar       
      10        4        5 ar       
      11        5        6 ar       
      12        5       32 1        
      13        6        7 ar       
      14        6       33 1        
      15        7        8 ar       
      16        7       34 1        
      17        8        9 ar       
      18        8       35 1        
      19        9       10 1        
      20       10       11 1        
      21       11       12 1        
      22       11       36 1        
      23       11       37 1        
      24       12       13 2        
      25       12       14 1        
      26       14       15 1        
      27       15       16 1        
      28       15       38 1        
      29       15       39 1        
      30       16       20 1        
      31       16       17 2        
      32       17       18 1        
      33       18       19 2        
      34       18       21 1        
      35       19       20 1        
      36       21       22 1        
      37       21       40 1        
      38       21       41 1        
      39       22       27 ar       
      40       22       23 ar       
      41       23       24 ar       
      42       23       42 1        
      43       24       25 ar       
      44       24       43 1        
      45       25       26 ar       
      46       25       44 1        
      47       26       27 ar       
      48       26       45 1        
      49       27       46 1        

