#        scan_R01_S0033_C0000_L00001_S0001_C0000_G0010_E0001.mol2
#        Mon Jun 19 14:13:30 2017
#        Descriptor:     22    34    32     2     3     6
#        Energy - RMSD - RMSD MassCentre:     -52.9575    999.9999    999.9999
#        Receptor:       1  Surface Point:    33  Conformer:     0
#        Ligand:         1  Surface Point:     1  Conformer:     0
#        BUDE Formal Charge: 0
#        ATOM Count: 27
#        Heavy ATOM Count: 17
@<TRIPOS>MOLECULE
pdb1gcz_ligA.pdb_scan_R01_S0033_C0000_L00001_S0001_C0000_G0010_E0001
27 28 1 0 0
SMALL
GASTEIGER
@<TRIPOS>ATOM
       1 C3         5.0731    1.4016    4.3715 C.3       1 YZ9900      0.0513 
       2 C11        3.8300    1.2355    5.1980 C.3       1 YZ9900      0.2089 
       3 O1         2.2127    3.5978    3.3245 O.2       1 YZ9900     -0.2447 
       4 O2         3.0051    2.4649    5.1029 O.3       1 YZ9900     -0.4453 
       5 C6        -1.7099    0.5185    1.6874 C.ar      1 YZ9900      0.0063 
       6 C5         0.1355    1.7500    2.8865 C.ar      1 YZ9900      0.0160 
       7 C4        -2.6670   -0.4943    4.2737 C.ar      1 YZ9900      0.0796 
       8 O3        -0.8705    0.7218    5.3141 O.2       1 YZ9900     -0.4208 
       9 C2        -1.0665    0.8603    2.9007 C.ar      1 YZ9900      0.0353 
      10 C1        -1.5473    0.3581    4.1489 C.ar      1 YZ9900      0.1519 
      11 C7         0.2277    1.4427    5.3204 C.ar      1 YZ9900      0.3521 
      12 C12        2.0704    2.7427    4.1448 C.2       1 YZ9900      0.3476 
      13 O4        -4.3529   -1.6205    3.0120 O.3       1 YZ9900     -0.2865 
      14 O5         0.7497    1.6532    6.3411 O.2       1 YZ9900     -0.2442 
      15 C10       -2.8441   -0.3417    1.7582 C.ar      1 YZ9900      0.0422 
      16 C9         0.7879    1.9699    4.0693 C.ar      1 YZ9900      0.1515 
      17 C8        -3.2794   -0.8116    3.0180 C.ar      1 YZ9900      0.1988 
      18 H31        4.7975    1.6000    3.3357 H         1 YZ9900      0.0000 
      19 H32        5.6572    2.2367    4.7582 H         1 YZ9900      0.0000 
      20 H33        5.6669    0.4890    4.4213 H         1 YZ9900      0.0000 
      21 H112       4.1059    1.0628    6.2383 H         1 YZ9900      0.0000 
      22 H113       3.2582    0.3847    4.8276 H         1 YZ9900      0.0000 
      23 H6        -1.3539    0.8965    0.7406 H         1 YZ9900      0.0000 
      24 H5         0.4788    2.2057    1.9695 H         1 YZ9900      0.0000 
      25 H4        -3.0253   -0.8692    5.2209 H         1 YZ9900      0.0000 
      26 HO4       -4.1095   -2.4732    2.6442 H         1 YZ9900      0.0000 
      27 H10       -3.3658   -0.6316    0.8580 H         1 YZ9900      0.0000 
@<TRIPOS>BOND
       1       13       17 1        
       2        7       17 ar       
       3        7       10 ar       
       4        8       10 ar       
       5        8       11 ar       
       6       14       11 2        
       7       17       15 ar       
       8       10        9 ar       
       9       11       16 ar       
      10        2        4 1        
      11        2        1 1        
      12       15        5 ar       
      13        9        5 ar       
      14        9        6 ar       
      15       16        6 ar       
      16       16       12 1        
      17        4       12 1        
      18       12        3 2        
      19       18        1 1        
      20       19        1 1        
      21       20        1 1        
      22       21        2 1        
      23       22        2 1        
      24       23        5 1        
      25       24        6 1        
      26       25        7 1        
      27       26       13 1        
      28       27       15 1        
@<TRIPOS>SUBSTRUCTURE
 1 YZ9900 10 RESIDUE 4 A YZ9900 0 ROOT

