#        scan_R01_S0033_C0000_L00001_S0001_C0002_G0010_E0001.mol2
#        Mon Jun 19 14:41:48 2017
#        Descriptor:     14    34    20     2     3     6
#        Energy - RMSD - RMSD MassCentre:     -56.2047    999.9999    999.9999
#        Receptor:       1  Surface Point:    33  Conformer:     0
#        Ligand:         1  Surface Point:     1  Conformer:     2
#        BUDE Formal Charge: 0
#        ATOM Count: 27
#        Heavy ATOM Count: 17
@<TRIPOS>MOLECULE
pdb1gcz_ligA.pdb_scan_R01_S0033_C0000_L00001_S0001_C0002_G0010_E0001
27 28 1 0 0
SMALL
GASTEIGER
@<TRIPOS>ATOM
       1 C3         6.4652    4.0283    5.9172 C.3       1 YZ9900      0.0513 
       2 C11        5.5028    4.3519    4.7781 C.3       1 YZ9900      0.2089 
       3 O1         3.5142    4.4470    3.0610 O.2       1 YZ9900     -0.2447 
       4 O2         4.3770    3.4725    4.8421 O.3       1 YZ9900     -0.4453 
       5 C6        -0.9400    2.0474    2.1158 C.ar      1 YZ9900      0.0063 
       6 C5         1.2573    2.8387    3.0178 C.ar      1 YZ9900      0.0160 
       7 C4        -1.1147    0.1173    4.1172 C.ar      1 YZ9900      0.0796 
       8 O3         0.9971    0.8378    5.0285 O.2       1 YZ9900     -0.4208 
       9 C2         0.0826    1.9396    3.0643 C.ar      1 YZ9900      0.0353 
      10 C1        -0.0051    0.9697    4.0699 C.ar      1 YZ9900      0.1519 
      11 C7         2.1007    1.6864    4.9805 C.ar      1 YZ9900      0.3521 
      12 C12        3.4122    3.6099    3.9077 C.2       1 YZ9900      0.3476 
      13 O4        -3.2069   -0.6357    3.2579 O.3       1 YZ9900     -0.2865 
      14 O5         2.9669    1.5541    5.8293 O.2       1 YZ9900     -0.2442 
      15 C10       -2.0474    1.1925    2.1677 C.ar      1 YZ9900      0.0422 
      16 C9         2.2275    2.7233    3.9321 C.ar      1 YZ9900      0.1515 
      17 C8        -2.1411    0.2206    3.1708 C.ar      1 YZ9900      0.1988 
      18 H31        6.8133    3.0022    5.8166 H         1 YZ9900      0.0000 
      19 H32        7.3153    4.7060    5.8764 H         1 YZ9900      0.0000 
      20 H33        5.9520    4.1461    6.8692 H         1 YZ9900      0.0000 
      21 H112       6.0108    4.2208    3.8249 H         1 YZ9900      0.0000 
      22 H113       5.1637    5.3815    4.8704 H         1 YZ9900      0.0000 
      23 H6        -0.8791    2.7933    1.3371 H         1 YZ9900      0.0000 
      24 H5         1.3156    3.5837    2.2380 H         1 YZ9900      0.0000 
      25 H4        -1.1779   -0.6294    4.8950 H         1 YZ9900      0.0000 
      26 HO4       -3.0981   -1.2515    3.9995 H         1 YZ9900      0.0000 
      27 H10       -2.8231    1.2965    1.4236 H         1 YZ9900      0.0000 
@<TRIPOS>BOND
       1       13       17 1        
       2        7       17 ar       
       3        7       10 ar       
       4        8       10 ar       
       5        8       11 ar       
       6       14       11 2        
       7       17       15 ar       
       8       10        9 ar       
       9       11       16 ar       
      10        2        4 1        
      11        2        1 1        
      12       15        5 ar       
      13        9        5 ar       
      14        9        6 ar       
      15       16        6 ar       
      16       16       12 1        
      17        4       12 1        
      18       12        3 2        
      19       18        1 1        
      20       19        1 1        
      21       20        1 1        
      22       21        2 1        
      23       22        2 1        
      24       23        5 1        
      25       24        6 1        
      26       25        7 1        
      27       26       13 1        
      28       27       15 1        
@<TRIPOS>SUBSTRUCTURE
 1 YZ9900 10 RESIDUE 4 A YZ9900 0 ROOT

