#        scan_R01_S0033_C0000_L00001_S0001_C0002_G0010_E0001.mol2
#        Mon Jun 19 14:13:31 2017
#        Descriptor:     34    20     3     2     3     6
#        Energy - RMSD - RMSD MassCentre:     -53.1766    999.9999    999.9999
#        Receptor:       1  Surface Point:    33  Conformer:     0
#        Ligand:         1  Surface Point:     1  Conformer:     2
#        BUDE Formal Charge: 0
#        ATOM Count: 27
#        Heavy ATOM Count: 17
@<TRIPOS>MOLECULE
pdb1gcz_ligA.pdb_scan_R01_S0033_C0000_L00001_S0001_C0002_G0010_E0001
27 28 1 0 0
SMALL
GASTEIGER
@<TRIPOS>ATOM
       1 C3         6.0211    4.9156    5.7490 C.3       1 YZ9900      0.0513 
       2 C11        5.2227    4.8263    4.4517 C.3       1 YZ9900      0.2089 
       3 O1         3.4999    4.2774    2.5431 O.2       1 YZ9900     -0.2447 
       4 O2         4.1283    3.9228    4.6277 O.3       1 YZ9900     -0.4453 
       5 C6        -0.6923    1.3888    1.7863 C.ar      1 YZ9900      0.0063 
       6 C5         1.3257    2.5645    2.6880 C.ar      1 YZ9900      0.0160 
       7 C4        -1.0909    0.1096    4.2289 C.ar      1 YZ9900      0.0796 
       8 O3         0.8434    1.2141    5.1494 O.2       1 YZ9900     -0.4208 
       9 C2         0.1861    1.6337    2.8471 C.ar      1 YZ9900      0.0353 
      10 C1        -0.0141    0.9908    4.0745 C.ar      1 YZ9900      0.1519 
      11 C7         1.9145    2.0912    4.9947 C.ar      1 YZ9900      0.3521 
      12 C12        3.3041    3.7145    3.5789 C.2       1 YZ9900      0.3476 
      13 O4        -3.0124   -1.0097    3.3696 O.3       1 YZ9900     -0.2865 
      14 O5         2.6534    2.2725    5.9484 O.2       1 YZ9900     -0.2442 
      15 C10       -1.7675    0.5066    1.9461 C.ar      1 YZ9900      0.0422 
      16 C9         2.1575    2.7885    3.7121 C.ar      1 YZ9900      0.1515 
      17 C8        -1.9732   -0.1393    3.1709 C.ar      1 YZ9900      0.1988 
      18 H31        6.4129    3.9324    6.0015 H         1 YZ9900      0.0000 
      19 H32        6.8459    5.6131    5.6191 H         1 YZ9900      0.0000 
      20 H33        5.3727    5.2649    6.5498 H         1 YZ9900      0.0000 
      21 H112       5.8666    4.4636    3.6531 H         1 YZ9900      0.0000 
      22 H113       4.8409    5.8112    4.1915 H         1 YZ9900      0.0000 
      23 H6        -0.5440    1.8811    0.8365 H         1 YZ9900      0.0000 
      24 H5         1.4716    3.0555    1.7372 H         1 YZ9900      0.0000 
      25 H4        -1.2414   -0.3840    5.1777 H         1 YZ9900      0.0000 
      26 HO4       -2.9917   -1.3761    4.2676 H         1 YZ9900      0.0000 
      27 H10       -2.4310    0.3349    1.1114 H         1 YZ9900      0.0000 
@<TRIPOS>BOND
       1       13       17 1        
       2        7       17 ar       
       3        7       10 ar       
       4        8       10 ar       
       5        8       11 ar       
       6       14       11 2        
       7       17       15 ar       
       8       10        9 ar       
       9       11       16 ar       
      10        2        4 1        
      11        2        1 1        
      12       15        5 ar       
      13        9        5 ar       
      14        9        6 ar       
      15       16        6 ar       
      16       16       12 1        
      17        4       12 1        
      18       12        3 2        
      19       18        1 1        
      20       19        1 1        
      21       20        1 1        
      22       21        2 1        
      23       22        2 1        
      24       23        5 1        
      25       24        6 1        
      26       25        7 1        
      27       26       13 1        
      28       27       15 1        
@<TRIPOS>SUBSTRUCTURE
 1 YZ9900 10 RESIDUE 4 A YZ9900 0 ROOT

