#        scan_R01_S0033_C0000_L00001_S0001_C0003_G0010_E0001.mol2
#        Mon Jun 19 14:41:48 2017
#        Descriptor:     28    19     3     2     2     5
#        Energy - RMSD - RMSD MassCentre:     -50.8748    999.9999    999.9999
#        Receptor:       1  Surface Point:    33  Conformer:     0
#        Ligand:         1  Surface Point:     1  Conformer:     3
#        BUDE Formal Charge: 0
#        ATOM Count: 27
#        Heavy ATOM Count: 17
@<TRIPOS>MOLECULE
pdb1gcz_ligA.pdb_scan_R01_S0033_C0000_L00001_S0001_C0003_G0010_E0001
27 28 1 0 0
SMALL
GASTEIGER
@<TRIPOS>ATOM
       1 C3         4.3970    5.4206    2.4479 C.3       1 YZ9900      0.0513 
       2 C11        4.3871    4.7152    3.8011 C.3       1 YZ9900      0.2089 
       3 O1         1.8423    4.6582    3.1431 O.2       1 YZ9900     -0.2447 
       4 O2         3.6367    3.5021    3.6997 O.3       1 YZ9900     -0.4453 
       5 C6        -1.9248    1.2246    2.4287 C.ar      1 YZ9900      0.0063 
       6 C5         0.2238    2.4218    2.8952 C.ar      1 YZ9900      0.0160 
       7 C4        -0.7144   -1.2332    2.9343 C.ar      1 YZ9900      0.0796 
       8 O3         1.3803   -0.1332    3.3942 O.2       1 YZ9900     -0.4208 
       9 C2        -0.5726    1.1793    2.7843 C.ar      1 YZ9900      0.0353 
      10 C1         0.0357   -0.0557    3.0383 C.ar      1 YZ9900      0.1519 
      11 C7         2.1256    1.0391    3.4973 C.ar      1 YZ9900      0.3521 
      12 C12        2.3346    3.5899    3.3540 C.2       1 YZ9900      0.3476 
      13 O4        -2.7606   -2.3727    2.4900 O.3       1 YZ9900     -0.2865 
      14 O5         3.3013    0.9490    3.8103 O.2       1 YZ9900     -0.2442 
      15 C10       -2.6702    0.0440    2.3262 C.ar      1 YZ9900      0.0422 
      16 C9         1.5165    2.3624    3.2362 C.ar      1 YZ9900      0.1515 
      17 C8        -2.0679   -1.1941    2.5790 C.ar      1 YZ9900      0.1988 
      18 H31        3.3763    5.6609    2.1575 H         1 YZ9900      0.0000 
      19 H32        4.9791    6.3368    2.5216 H         1 YZ9900      0.0000 
      20 H33        4.8426    4.7661    1.7018 H         1 YZ9900      0.0000 
      21 H112       3.9289    5.3632    4.5452 H         1 YZ9900      0.0000 
      22 H113       5.4081    4.4855    4.0985 H         1 YZ9900      0.0000 
      23 H6        -2.4008    2.1737    2.2313 H         1 YZ9900      0.0000 
      24 H5        -0.2547    3.3696    2.6972 H         1 YZ9900      0.0000 
      25 H4        -0.2407   -2.1836    3.1313 H         1 YZ9900      0.0000 
      26 HO4       -2.1844   -3.1295    2.6802 H         1 YZ9900      0.0000 
      27 H10       -3.7125    0.1064    2.0501 H         1 YZ9900      0.0000 
@<TRIPOS>BOND
       1       13       17 1        
       2        7       17 ar       
       3        7       10 ar       
       4        8       10 ar       
       5        8       11 ar       
       6       14       11 2        
       7       17       15 ar       
       8       10        9 ar       
       9       11       16 ar       
      10        2        4 1        
      11        2        1 1        
      12       15        5 ar       
      13        9        5 ar       
      14        9        6 ar       
      15       16        6 ar       
      16       16       12 1        
      17        4       12 1        
      18       12        3 2        
      19       18        1 1        
      20       19        1 1        
      21       20        1 1        
      22       21        2 1        
      23       22        2 1        
      24       23        5 1        
      25       24        6 1        
      26       25        7 1        
      27       26       13 1        
      28       27       15 1        
@<TRIPOS>SUBSTRUCTURE
 1 YZ9900 10 RESIDUE 4 A YZ9900 0 ROOT

