#        scan_R01_S0033_C0000_L00001_S0001_C0003_G0010_E0001.mol2
#        Mon Jun 19 14:13:32 2017
#        Descriptor:     28    35    23     2     3     5
#        Energy - RMSD - RMSD MassCentre:     -52.1746    999.9999    999.9999
#        Receptor:       1  Surface Point:    33  Conformer:     0
#        Ligand:         1  Surface Point:     1  Conformer:     3
#        BUDE Formal Charge: 0
#        ATOM Count: 27
#        Heavy ATOM Count: 17
@<TRIPOS>MOLECULE
pdb1gcz_ligA.pdb_scan_R01_S0033_C0000_L00001_S0001_C0003_G0010_E0001
27 28 1 0 0
SMALL
GASTEIGER
@<TRIPOS>ATOM
       1 C3         5.7277    3.9431    5.7481 C.3       1 YZ9900      0.0513 
       2 C11        5.3428    4.4271    4.3530 C.3       1 YZ9900      0.2089 
       3 O1         4.7866    1.8616    4.2078 O.2       1 YZ9900     -0.2447 
       4 O2         4.0443    3.9303    4.0185 O.3       1 YZ9900     -0.4453 
       5 C6         0.7871   -1.2092    3.1761 C.ar      1 YZ9900      0.0063 
       6 C5         2.3464    0.7075    3.5789 C.ar      1 YZ9900      0.0160 
       7 C4        -1.3051    0.5505    2.6393 C.ar      1 YZ9900      0.0796 
       8 O3         0.1515    2.4336    3.0157 O.2       1 YZ9900     -0.4208 
       9 C2         1.0109    0.1705    3.2348 C.ar      1 YZ9900      0.0353 
      10 C1        -0.0403    1.0547    2.9651 C.ar      1 YZ9900      0.1519 
      11 C7         1.4103    2.9341    3.3400 C.ar      1 YZ9900      0.3521 
      12 C12        3.8707    2.5922    3.9728 C.2       1 YZ9900      0.3476 
      13 O4        -2.7895   -1.2750    2.2558 O.3       1 YZ9900     -0.2865 
      14 O5         1.5568    4.1447    3.3787 O.2       1 YZ9900     -0.2442 
      15 C10       -0.4797   -1.7080    2.8497 C.ar      1 YZ9900      0.0422 
      16 C9         2.5450    2.0299    3.6312 C.ar      1 YZ9900      0.1515 
      17 C8        -1.5350   -0.8291    2.5789 C.ar      1 YZ9900      0.1988 
      18 H31        5.7529    2.8554    5.7598 H         1 YZ9900      0.0000 
      19 H32        6.7100    4.3322    6.0080 H         1 YZ9900      0.0000 
      20 H33        4.9943    4.2974    6.4694 H         1 YZ9900      0.0000 
      21 H112       6.0678    4.0617    3.6289 H         1 YZ9900      0.0000 
      22 H113       5.3295    5.5148    4.3367 H         1 YZ9900      0.0000 
      23 H6         1.5933   -1.8974    3.3830 H         1 YZ9900      0.0000 
      24 H5         3.1509    0.0171    3.7853 H         1 YZ9900      0.0000 
      25 H4        -2.1130    1.2366    2.4319 H         1 YZ9900      0.0000 
      26 HO4       -3.3976   -0.5319    2.1183 H         1 YZ9900      0.0000 
      27 H10       -0.6261   -2.7774    2.8112 H         1 YZ9900      0.0000 
@<TRIPOS>BOND
       1       13       17 1        
       2        7       17 ar       
       3        7       10 ar       
       4        8       10 ar       
       5        8       11 ar       
       6       14       11 2        
       7       17       15 ar       
       8       10        9 ar       
       9       11       16 ar       
      10        2        4 1        
      11        2        1 1        
      12       15        5 ar       
      13        9        5 ar       
      14        9        6 ar       
      15       16        6 ar       
      16       16       12 1        
      17        4       12 1        
      18       12        3 2        
      19       18        1 1        
      20       19        1 1        
      21       20        1 1        
      22       21        2 1        
      23       22        2 1        
      24       23        5 1        
      25       24        6 1        
      26       25        7 1        
      27       26       13 1        
      28       27       15 1        
@<TRIPOS>SUBSTRUCTURE
 1 YZ9900 10 RESIDUE 4 A YZ9900 0 ROOT

