#        scan_R01_S0034_C0000_L00001_S0001_C0000_G0010_E0001.mol2
#        Mon Jun 19 14:41:49 2017
#        Descriptor:     30    26    31     3     3     6
#        Energy - RMSD - RMSD MassCentre:     -30.6702    999.9999    999.9999
#        Receptor:       1  Surface Point:    34  Conformer:     0
#        Ligand:         1  Surface Point:     1  Conformer:     0
#        BUDE Formal Charge: 0
#        ATOM Count: 27
#        Heavy ATOM Count: 17
@<TRIPOS>MOLECULE
pdb1gcz_ligA.pdb_scan_R01_S0034_C0000_L00001_S0001_C0000_G0010_E0001
27 28 1 0 0
SMALL
GASTEIGER
@<TRIPOS>ATOM
       1 C3         2.3083   -2.0311    0.1095 C.3       1 YZ9900      0.0513 
       2 C11        1.4137   -1.9621    1.3140 C.3       1 YZ9900      0.2089 
       3 O1         3.9562   -0.6420    3.1845 O.2       1 YZ9900     -0.2447 
       4 O2         2.2416   -1.9554    2.5450 O.3       1 YZ9900     -0.4453 
       5 C6         1.5273    3.8286    4.4737 C.ar      1 YZ9900      0.0063 
       6 C5         2.2554    1.4840    3.8973 C.ar      1 YZ9900      0.0160 
       7 C4        -0.9658    2.7436    5.5863 C.ar      1 YZ9900      0.0796 
       8 O3        -0.1714    0.5510    4.9941 O.2       1 YZ9900     -0.4208 
       9 C2         1.2608    2.4387    4.4768 C.ar      1 YZ9900      0.0353 
      10 C1         0.0426    1.9300    5.0231 C.ar      1 YZ9900      0.1519 
      11 C7         0.6538   -0.2995    4.4274 C.ar      1 YZ9900      0.3521 
      12 C12        2.7828   -0.8570    3.1529 C.2       1 YZ9900      0.3476 
      13 O4        -1.5375    5.0130    6.0610 O.3       1 YZ9900     -0.2865 
      14 O5         0.3643   -1.4285    4.4097 O.2       1 YZ9900     -0.2442 
      15 C10        0.5400    4.6940    5.0286 C.ar      1 YZ9900      0.0422 
      16 C9         1.9123    0.1610    3.8263 C.ar      1 YZ9900      0.1515 
      17 C8        -0.6486    4.1403    5.5560 C.ar      1 YZ9900      0.1988 
      18 H31        2.9872   -1.1783    0.1111 H         1 YZ9900      0.0000 
      19 H32        2.8859   -2.9550    0.1387 H         1 YZ9900      0.0000 
      20 H33        1.7011   -2.0107   -0.7955 H         1 YZ9900      0.0000 
      21 H112       0.7525   -2.8286    1.3256 H         1 YZ9900      0.0000 
      22 H113       0.8174   -1.0506    1.2722 H         1 YZ9900      0.0000 
      23 H6         2.4470    4.2201    4.0651 H         1 YZ9900      0.0000 
      24 H5         3.2164    1.8284    3.5450 H         1 YZ9900      0.0000 
      25 H4        -1.8839    2.3517    5.9984 H         1 YZ9900      0.0000 
      26 HO4       -1.9435    5.5073    5.3452 H         1 YZ9900      0.0000 
      27 H10        0.6986    5.7622    5.0457 H         1 YZ9900      0.0000 
@<TRIPOS>BOND
       1       13       17 1        
       2        7       17 ar       
       3        7       10 ar       
       4        8       10 ar       
       5        8       11 ar       
       6       14       11 2        
       7       17       15 ar       
       8       10        9 ar       
       9       11       16 ar       
      10        2        4 1        
      11        2        1 1        
      12       15        5 ar       
      13        9        5 ar       
      14        9        6 ar       
      15       16        6 ar       
      16       16       12 1        
      17        4       12 1        
      18       12        3 2        
      19       18        1 1        
      20       19        1 1        
      21       20        1 1        
      22       21        2 1        
      23       22        2 1        
      24       23        5 1        
      25       24        6 1        
      26       25        7 1        
      27       26       13 1        
      28       27       15 1        
@<TRIPOS>SUBSTRUCTURE
 1 YZ9900 10 RESIDUE 4 A YZ9900 0 ROOT

