#        scan_R01_S0034_C0000_L00001_S0001_C0000_G0010_E0001.mol2
#        Mon Jun 19 14:13:33 2017
#        Descriptor:     11    28    12     3     3     6
#        Energy - RMSD - RMSD MassCentre:     -30.7624    999.9999    999.9999
#        Receptor:       1  Surface Point:    34  Conformer:     0
#        Ligand:         1  Surface Point:     1  Conformer:     0
#        BUDE Formal Charge: 0
#        ATOM Count: 27
#        Heavy ATOM Count: 17
@<TRIPOS>MOLECULE
pdb1gcz_ligA.pdb_scan_R01_S0034_C0000_L00001_S0001_C0000_G0010_E0001
27 28 1 0 0
SMALL
GASTEIGER
@<TRIPOS>ATOM
       1 C3         2.3970   -1.9670    0.0909 C.3       1 YZ9900      0.0513 
       2 C11        1.4730   -1.9163    1.2740 C.3       1 YZ9900      0.2089 
       3 O1         3.9716   -0.6361    3.2296 O.2       1 YZ9900     -0.2447 
       4 O2         2.2701   -1.9333    2.5250 O.3       1 YZ9900     -0.4453 
       5 C6         1.5222    3.8185    4.5358 C.ar      1 YZ9900      0.0063 
       6 C5         2.2588    1.4821    3.9368 C.ar      1 YZ9900      0.0160 
       7 C4        -1.0003    2.7214    5.5672 C.ar      1 YZ9900      0.0796 
       8 O3        -0.1968    0.5372    4.9569 O.2       1 YZ9900     -0.4208 
       9 C2         1.2524    2.4295    4.5081 C.ar      1 YZ9900      0.0353 
      10 C1         0.0198    1.9149    5.0151 C.ar      1 YZ9900      0.1519 
      11 C7         0.6401   -0.3057    4.3960 C.ar      1 YZ9900      0.3521 
      12 C12        2.7988   -0.8472    3.1652 C.2       1 YZ9900      0.3476 
      13 O4        -1.5781    4.9839    6.0670 O.3       1 YZ9900     -0.2865 
      14 O5         0.3485   -1.4334    4.3516 O.2       1 YZ9900     -0.2442 
      15 C10        0.5236    4.6769    5.0809 C.ar      1 YZ9900      0.0422 
      16 C9         1.9143    0.1616    3.8344 C.ar      1 YZ9900      0.1515 
      17 C8        -0.6791    4.1176    5.5691 C.ar      1 YZ9900      0.1988 
      18 H31        3.0778   -1.1162    0.1242 H         1 YZ9900      0.0000 
      19 H32        2.9716   -2.8929    0.1184 H         1 YZ9900      0.0000 
      20 H33        1.8126   -1.9291   -0.8283 H         1 YZ9900      0.0000 
      21 H112       0.8097   -2.7810    1.2541 H         1 YZ9900      0.0000 
      22 H113       0.8802   -1.0025    1.2332 H         1 YZ9900      0.0000 
      23 H6         2.4527    4.2144    4.1569 H         1 YZ9900      0.0000 
      24 H5         3.2290    1.8298    3.6145 H         1 YZ9900      0.0000 
      25 H4        -1.9293    2.3251    5.9495 H         1 YZ9900      0.0000 
      26 HO4       -1.9651    5.4917    5.3500 H         1 YZ9900      0.0000 
      27 H10        0.6843    5.7442    5.1206 H         1 YZ9900      0.0000 
@<TRIPOS>BOND
       1       13       17 1        
       2        7       17 ar       
       3        7       10 ar       
       4        8       10 ar       
       5        8       11 ar       
       6       14       11 2        
       7       17       15 ar       
       8       10        9 ar       
       9       11       16 ar       
      10        2        4 1        
      11        2        1 1        
      12       15        5 ar       
      13        9        5 ar       
      14        9        6 ar       
      15       16        6 ar       
      16       16       12 1        
      17        4       12 1        
      18       12        3 2        
      19       18        1 1        
      20       19        1 1        
      21       20        1 1        
      22       21        2 1        
      23       22        2 1        
      24       23        5 1        
      25       24        6 1        
      26       25        7 1        
      27       26       13 1        
      28       27       15 1        
@<TRIPOS>SUBSTRUCTURE
 1 YZ9900 10 RESIDUE 4 A YZ9900 0 ROOT

