#        scan_R01_S0034_C0000_L00001_S0001_C0002_G0010_E0001.mol2
#        Mon Jun 19 14:41:49 2017
#        Descriptor:      7    36    23     2     3     6
#        Energy - RMSD - RMSD MassCentre:     -38.6516    999.9999    999.9999
#        Receptor:       1  Surface Point:    34  Conformer:     0
#        Ligand:         1  Surface Point:     1  Conformer:     2
#        BUDE Formal Charge: 0
#        ATOM Count: 27
#        Heavy ATOM Count: 17
@<TRIPOS>MOLECULE
pdb1gcz_ligA.pdb_scan_R01_S0034_C0000_L00001_S0001_C0002_G0010_E0001
27 28 1 0 0
SMALL
GASTEIGER
@<TRIPOS>ATOM
       1 C3         4.0966    7.1415    4.3805 C.3       1 YZ9900      0.0513 
       2 C11        2.6257    6.8935    4.7023 C.3       1 YZ9900      0.2089 
       3 O1         0.2281    5.8864    5.0883 O.2       1 YZ9900     -0.2447 
       4 O2         2.3125    5.5182    4.4671 O.3       1 YZ9900     -0.4453 
       5 C6        -2.2187    1.3765    4.6829 C.ar      1 YZ9900      0.0063 
       6 C5        -0.5726    3.2626    4.6921 C.ar      1 YZ9900      0.0160 
       7 C4        -0.2604   -0.3844    3.7743 C.ar      1 YZ9900      0.0796 
       8 O3         1.3665    1.3939    3.7637 O.2       1 YZ9900     -0.4208 
       9 C2        -0.9198    1.8435    4.4557 C.ar      1 YZ9900      0.0353 
      10 C1         0.0643    0.9587    3.9991 C.ar      1 YZ9900      0.1519 
      11 C7         1.6884    2.7305    3.9877 C.ar      1 YZ9900      0.3521 
      12 C12        1.0472    5.1083    4.6988 C.2       1 YZ9900      0.3476 
      13 O4        -1.8283   -2.1801    3.7658 O.3       1 YZ9900     -0.2865 
      14 O5         2.8345    3.0908    3.7754 O.2       1 YZ9900     -0.2442 
      15 C10       -2.5380    0.0323    4.4564 C.ar      1 YZ9900      0.0422 
      16 C9         0.6744    3.6945    4.4701 C.ar      1 YZ9900      0.1515 
      17 C8        -1.5584   -0.8575    3.9999 C.ar      1 YZ9900      0.1988 
      18 H31        4.2817    6.9120    3.3331 H         1 YZ9900      0.0000 
      19 H32        4.3381    8.1849    4.5721 H         1 YZ9900      0.0000 
      20 H33        4.7168    6.5040    5.0072 H         1 YZ9900      0.0000 
      21 H112       2.0040    7.5202    4.0663 H         1 YZ9900      0.0000 
      22 H113       2.4365    7.1345    5.7462 H         1 YZ9900      0.0000 
      23 H6        -2.9831    2.0532    5.0351 H         1 YZ9900      0.0000 
      24 H5        -1.3390    3.9373    5.0443 H         1 YZ9900      0.0000 
      25 H4         0.5023   -1.0633    3.4221 H         1 YZ9900      0.0000 
      26 HO4       -1.0410   -2.6425    3.4381 H         1 YZ9900      0.0000 
      27 H10       -3.5482   -0.3029    4.6396 H         1 YZ9900      0.0000 
@<TRIPOS>BOND
       1       13       17 1        
       2        7       17 ar       
       3        7       10 ar       
       4        8       10 ar       
       5        8       11 ar       
       6       14       11 2        
       7       17       15 ar       
       8       10        9 ar       
       9       11       16 ar       
      10        2        4 1        
      11        2        1 1        
      12       15        5 ar       
      13        9        5 ar       
      14        9        6 ar       
      15       16        6 ar       
      16       16       12 1        
      17        4       12 1        
      18       12        3 2        
      19       18        1 1        
      20       19        1 1        
      21       20        1 1        
      22       21        2 1        
      23       22        2 1        
      24       23        5 1        
      25       24        6 1        
      26       25        7 1        
      27       26       13 1        
      28       27       15 1        
@<TRIPOS>SUBSTRUCTURE
 1 YZ9900 10 RESIDUE 4 A YZ9900 0 ROOT

