#        scan_R01_S0034_C0000_L00001_S0001_C0002_G0010_E0001.mol2
#        Mon Jun 19 14:13:34 2017
#        Descriptor:     26    20     6     3     3     5
#        Energy - RMSD - RMSD MassCentre:     -41.3820    999.9999    999.9999
#        Receptor:       1  Surface Point:    34  Conformer:     0
#        Ligand:         1  Surface Point:     1  Conformer:     2
#        BUDE Formal Charge: 0
#        ATOM Count: 27
#        Heavy ATOM Count: 17
@<TRIPOS>MOLECULE
pdb1gcz_ligA.pdb_scan_R01_S0034_C0000_L00001_S0001_C0002_G0010_E0001
27 28 1 0 0
SMALL
GASTEIGER
@<TRIPOS>ATOM
       1 C3         3.6600    7.3338    5.7297 C.3       1 YZ9900      0.0513 
       2 C11        2.2277    6.8700    5.4813 C.3       1 YZ9900      0.2089 
       3 O1         0.0390    5.5556    4.8535 O.2       1 YZ9900     -0.2447 
       4 O2         2.2432    5.5467    4.9396 O.3       1 YZ9900     -0.4453 
       5 C6        -1.3506    0.9901    2.9260 C.ar      1 YZ9900      0.0063 
       6 C5        -0.1375    2.9987    3.7985 C.ar      1 YZ9900      0.0160 
       7 C4         1.0634   -0.3285    2.4839 C.ar      1 YZ9900      0.0796 
       8 O3         2.2831    1.5772    3.3145 O.2       1 YZ9900     -0.4208 
       9 C2        -0.1458    1.6294    3.2371 C.ar      1 YZ9900      0.0353 
      10 C1         1.0672    0.9669    3.0149 C.ar      1 YZ9900      0.1519 
      11 C7         2.2857    2.8660    3.8428 C.ar      1 YZ9900      0.3521 
      12 C12        1.0587    4.9657    4.6533 C.2       1 YZ9900      0.3476 
      13 O4        -0.0923   -2.2409    1.6531 O.3       1 YZ9900     -0.2865 
      14 O5         3.3612    3.3822    4.0981 O.2       1 YZ9900     -0.2442 
      15 C10       -1.3487   -0.3054    2.3951 C.ar      1 YZ9900      0.0422 
      16 C9         1.0231    3.5972    4.0910 C.ar      1 YZ9900      0.1515 
      17 C8        -0.1391   -0.9733    2.1707 C.ar      1 YZ9900      0.1988 
      18 H31        4.2054    7.3449    4.7882 H         1 YZ9900      0.0000 
      19 H32        3.6476    8.3355    6.1542 H         1 YZ9900      0.0000 
      20 H33        4.1465    6.6513    6.4234 H         1 YZ9900      0.0000 
      21 H112       1.7445    7.5439    4.7768 H         1 YZ9900      0.0000 
      22 H113       1.6777    6.8705    6.4200 H         1 YZ9900      0.0000 
      23 H6        -2.2903    1.4950    3.0946 H         1 YZ9900      0.0000 
      24 H5        -1.0786    3.5013    3.9662 H         1 YZ9900      0.0000 
      25 H4         2.0018   -0.8357    2.3143 H         1 YZ9900      0.0000 
      26 HO4        0.8246   -2.5398    1.5487 H         1 YZ9900      0.0000 
      27 H10       -2.2925   -0.7766    2.1636 H         1 YZ9900      0.0000 
@<TRIPOS>BOND
       1       13       17 1        
       2        7       17 ar       
       3        7       10 ar       
       4        8       10 ar       
       5        8       11 ar       
       6       14       11 2        
       7       17       15 ar       
       8       10        9 ar       
       9       11       16 ar       
      10        2        4 1        
      11        2        1 1        
      12       15        5 ar       
      13        9        5 ar       
      14        9        6 ar       
      15       16        6 ar       
      16       16       12 1        
      17        4       12 1        
      18       12        3 2        
      19       18        1 1        
      20       19        1 1        
      21       20        1 1        
      22       21        2 1        
      23       22        2 1        
      24       23        5 1        
      25       24        6 1        
      26       25        7 1        
      27       26       13 1        
      28       27       15 1        
@<TRIPOS>SUBSTRUCTURE
 1 YZ9900 10 RESIDUE 4 A YZ9900 0 ROOT

