#        scan_R01_S0034_C0000_L00001_S0001_C0003_G0010_E0001.mol2
#        Mon Jun 19 14:41:50 2017
#        Descriptor:      9    34    23     3     3     6
#        Energy - RMSD - RMSD MassCentre:     -40.0524    999.9999    999.9999
#        Receptor:       1  Surface Point:    34  Conformer:     0
#        Ligand:         1  Surface Point:     1  Conformer:     3
#        BUDE Formal Charge: 0
#        ATOM Count: 27
#        Heavy ATOM Count: 17
@<TRIPOS>MOLECULE
pdb1gcz_ligA.pdb_scan_R01_S0034_C0000_L00001_S0001_C0003_G0010_E0001
27 28 1 0 0
SMALL
GASTEIGER
@<TRIPOS>ATOM
       1 C3         2.9811    7.6375    5.0194 C.3       1 YZ9900      0.0513 
       2 C11        3.2719    6.6788    6.1704 C.3       1 YZ9900      0.2089 
       3 O1         0.9274    5.8288    5.3381 O.2       1 YZ9900     -0.2447 
       4 O2         3.0393    5.3349    5.7406 O.3       1 YZ9900     -0.4453 
       5 C6        -1.2589    1.5097    3.5898 C.ar      1 YZ9900      0.0063 
       6 C5         0.2799    3.2776    4.4697 C.ar      1 YZ9900      0.0160 
       7 C4         0.8092   -0.3569    3.6027 C.ar      1 YZ9900      0.0796 
       8 O3         2.3352    1.3052    4.4500 O.2       1 YZ9900     -0.4208 
       9 C2         0.0158    1.8923    4.0205 C.ar      1 YZ9900      0.0353 
      10 C1         1.0551    0.9544    4.0269 C.ar      1 YZ9900      0.1519 
      11 C7         2.5787    2.6102    4.8719 C.ar      1 YZ9900      0.3521 
      12 C12        1.7949    5.0069    5.3327 C.2       1 YZ9900      0.3476 
      13 O4        -0.6566   -2.0398    2.7649 O.3       1 YZ9900     -0.2865 
      14 O5         3.7066    2.8965    5.2385 O.2       1 YZ9900     -0.2442 
      15 C10       -1.4994    0.1971    3.1666 C.ar      1 YZ9900      0.0422 
      16 C9         1.5048    3.6285    4.8788 C.ar      1 YZ9900      0.1515 
      17 C8        -0.4644   -0.7455    3.1707 C.ar      1 YZ9900      0.1988 
      18 H31        1.9397    7.5386    4.7202 H         1 YZ9900      0.0000 
      19 H32        3.1709    8.6590    5.3423 H         1 YZ9900      0.0000 
      20 H33        3.6257    7.3974    4.1765 H         1 YZ9900      0.0000 
      21 H112       2.6181    6.9090    7.0089 H         1 YZ9900      0.0000 
      22 H113       4.3097    6.7857    6.4789 H         1 YZ9900      0.0000 
      23 H6        -2.0655    2.2279    3.5821 H         1 YZ9900      0.0000 
      24 H5        -0.5285    3.9937    4.4609 H         1 YZ9900      0.0000 
      25 H4         1.6141   -1.0770    3.6095 H         1 YZ9900      0.0000 
      26 HO4        0.1690   -2.5464    2.8168 H         1 YZ9900      0.0000 
      27 H10       -2.4925   -0.0727    2.8389 H         1 YZ9900      0.0000 
@<TRIPOS>BOND
       1       13       17 1        
       2        7       17 ar       
       3        7       10 ar       
       4        8       10 ar       
       5        8       11 ar       
       6       14       11 2        
       7       17       15 ar       
       8       10        9 ar       
       9       11       16 ar       
      10        2        4 1        
      11        2        1 1        
      12       15        5 ar       
      13        9        5 ar       
      14        9        6 ar       
      15       16        6 ar       
      16       16       12 1        
      17        4       12 1        
      18       12        3 2        
      19       18        1 1        
      20       19        1 1        
      21       20        1 1        
      22       21        2 1        
      23       22        2 1        
      24       23        5 1        
      25       24        6 1        
      26       25        7 1        
      27       26       13 1        
      28       27       15 1        
@<TRIPOS>SUBSTRUCTURE
 1 YZ9900 10 RESIDUE 4 A YZ9900 0 ROOT

