#        1GCZ_R01_S0001_C0000_L00004_S0001_C0009_G0010_E0001.mol2
#        Tue Jun  6 14:05:28 2017
#        Descriptor:     32    31    28    11     8    12
#        Energy - RMSD - RMSD MassCentre:     -74.6132    999.9999    999.9999
#        Receptor:       1  Surface Point:     1  Conformer:     0
#        Ligand:         4  Surface Point:     1  Conformer:     9
#        BUDE Formal Charge: 0
#        ATOM Count: 46
#        Heavy ATOM Count: 28
@<TRIPOS>MOLECULE
ZINC61563277_1GCZ_R01_S0001_C0000_L00004_S0001_C0009_G0010_E0001
 46 49 0 0 0
SMALL
USER_CHARGES
@<TRIPOS>ATOM
       1 C1         5.3631    2.4641    7.0930 C.3       1 <0>        -0.1051 
       2 C2         5.9857    1.1445    6.7046 C.2       1 <0>         0.1324 
       3 C3         6.9494    0.5014    7.3780 C.2       1 <0>        -0.1714 
       4 C4         7.2683   -0.7582    6.6222 C.ar      1 <0>        -0.0773 
       5 C5         8.1790   -1.8078    6.7922 C.ar      1 <0>        -0.0675 
       6 C6         8.1145   -2.8459    5.8550 C.ar      1 <0>        -0.1361 
       7 C7         7.1517   -2.8368    4.8372 C.ar      1 <0>        -0.0920 
       8 C8         6.2423   -1.7824    4.6903 C.ar      1 <0>        -0.1265 
       9 C9         6.3453   -0.6991    5.5711 C.ar      1 <0>         0.1084 
      10 N1         5.6571    0.4612    5.6272 N.pl3     1 <0>        -0.4675 
      11 C10        4.6507    0.8824    4.6290 C.3       1 <0>         0.1242 
      12 C11        3.3562    0.1456    4.8764 C.2       1 <0>         0.4463 
      13 O1         2.9590   -0.6486    4.0768 O.2       1 <0>        -0.4704 
      14 O2         2.6482    0.3846    6.0009 O.3       1 <0>        -0.3437 
      15 C12        1.4285   -0.3371    6.1916 C.3       1 <0>         0.1567 
      16 C13        0.4532    0.0266    5.0977 C.2       1 <0>         0.2874 
      17 N2        -0.1058   -0.6250    4.0950 N.2       1 <0>        -0.5106 
      18 C14       -0.9584    0.2307    3.3874 C.2       1 <0>         0.2609 
      19 N3        -0.9210    1.3890    3.9308 N.2       1 <0>        -0.3200 
      20 O3        -0.0385    1.3274    5.0158 O.3       1 <0>        -0.0928 
      21 C15       -1.7999   -0.1463    2.1917 C.3       1 <0>         0.0037 
      22 C16       -1.0268    0.1331    0.9249 C.ar      1 <0>        -0.0973 
      23 C17       -1.1255    1.3781    0.2923 C.ar      1 <0>        -0.0995 
      24 C18       -0.3928    1.6473   -0.8699 C.ar      1 <0>        -0.1207 
      25 C19        0.4301    0.6643   -1.4242 C.ar      1 <0>        -0.1122 
      26 C20        0.5253   -0.5868   -0.8032 C.ar      1 <0>        -0.1201 
      27 C21       -0.2074   -0.8515    0.3600 C.ar      1 <0>        -0.1046 
      28 Br1        7.7733    1.0243    8.9848 Br        1 <0>        -0.0155 
      29 H1         4.2944    2.3293    7.2452 H         1 <0>         0.0903 
      30 H2         5.5283    3.1898    6.2996 H         1 <0>         0.0953 
      31 H3         5.8187    2.8223    8.0138 H         1 <0>         0.0712 
      32 H4         8.9013   -1.8414    7.5945 H         1 <0>         0.1274 
      33 H5         8.8117   -3.6657    5.9463 H         1 <0>         0.1276 
      34 H6         7.0973   -3.6637    4.1447 H         1 <0>         0.1296 
      35 H7         5.4960   -1.8533    3.9130 H         1 <0>         0.1206 
      36 H8         5.0133    0.6515    3.6297 H         1 <0>         0.1394 
      37 H9         4.4809    1.9538    4.7140 H         1 <0>         0.1404 
      38 H10        1.0025   -0.0787    7.1589 H         1 <0>         0.1240 
      39 H11        1.6309   -1.4055    6.1574 H         1 <0>         0.1139 
      40 H12       -2.7165    0.4399    2.1947 H         1 <0>         0.1085 
      41 H13       -2.0456   -1.2050    2.2411 H         1 <0>         0.1144 
      42 H14       -1.7729    2.1440    0.6929 H         1 <0>         0.1277 
      43 H15       -0.4748    2.6134   -1.3456 H         1 <0>         0.1259 
      44 H16        0.9996    0.8659   -2.3193 H         1 <0>         0.1247 
      45 H17        1.1648   -1.3484   -1.2244 H         1 <0>         0.1255 
      46 H18       -0.1356   -1.8277    0.8165 H         1 <0>         0.1245 
@<TRIPOS>BOND
       1        1        2 1        
       2        1       29 1        
       3        1       30 1        
       4        1       31 1        
       5        2       10 1        
       6        2        3 2        
       7        3        4 1        
       8        3       28 1        
       9        4        9 ar       
      10        4        5 ar       
      11        5        6 ar       
      12        5       32 1        
      13        6        7 ar       
      14        6       33 1        
      15        7        8 ar       
      16        7       34 1        
      17        8        9 ar       
      18        8       35 1        
      19        9       10 1        
      20       10       11 1        
      21       11       12 1        
      22       11       36 1        
      23       11       37 1        
      24       12       13 2        
      25       12       14 1        
      26       14       15 1        
      27       15       16 1        
      28       15       38 1        
      29       15       39 1        
      30       16       20 1        
      31       16       17 2        
      32       17       18 1        
      33       18       19 2        
      34       18       21 1        
      35       19       20 1        
      36       21       22 1        
      37       21       40 1        
      38       21       41 1        
      39       22       27 ar       
      40       22       23 ar       
      41       23       24 ar       
      42       23       42 1        
      43       24       25 ar       
      44       24       43 1        
      45       25       26 ar       
      46       25       44 1        
      47       26       27 ar       
      48       26       45 1        
      49       27       46 1        

