#        scan_R01_S0035_C0000_L00001_S0001_C0000_G0010_E0001.mol2
#        Mon Jun 19 14:41:50 2017
#        Descriptor:      9    10     9     3     3     7
#        Energy - RMSD - RMSD MassCentre:     -29.2396    999.9999    999.9999
#        Receptor:       1  Surface Point:    35  Conformer:     0
#        Ligand:         1  Surface Point:     1  Conformer:     0
#        BUDE Formal Charge: 0
#        ATOM Count: 27
#        Heavy ATOM Count: 17
@<TRIPOS>MOLECULE
pdb1gcz_ligA.pdb_scan_R01_S0035_C0000_L00001_S0001_C0000_G0010_E0001
27 28 1 0 0
SMALL
GASTEIGER
@<TRIPOS>ATOM
       1 C3         2.0758    4.1287    8.8845 C.3       1 YZ9900      0.0513 
       2 C11        1.1070    3.9256    7.7549 C.3       1 YZ9900      0.2089 
       3 O1         3.6730    3.1337    5.6349 O.2       1 YZ9900     -0.2447 
       4 O2         1.8126    4.0979    6.4613 O.3       1 YZ9900     -0.4453 
       5 C6         1.9832   -1.6738    4.3771 C.ar      1 YZ9900      0.0063 
       6 C5         2.3260    0.7505    4.9818 C.ar      1 YZ9900      0.0160 
       7 C4        -0.7511   -1.0355    3.5131 C.ar      1 YZ9900      0.0796 
       8 O3        -0.3148    1.2508    4.1222 O.2       1 YZ9900     -0.4208 
       9 C2         1.4724   -0.3559    4.4489 C.ar      1 YZ9900      0.0353 
      10 C1         0.1399   -0.0651    4.0232 C.ar      1 YZ9900      0.1519 
      11 C7         0.3904    2.2242    4.6522 C.ar      1 YZ9900      0.3521 
      12 C12        2.4873    3.1307    5.7699 C.2       1 YZ9900      0.3476 
      13 O4        -0.9453   -3.3596    3.0000 O.3       1 YZ9900     -0.2865 
      14 O5        -0.0943    3.2809    4.7365 O.2       1 YZ9900     -0.2442 
      15 C10        1.1229   -2.6914    3.8716 C.ar      1 YZ9900      0.0422 
      16 C9         1.7585    1.9869    5.1310 C.ar      1 YZ9900      0.1515 
      17 C8        -0.1870   -2.3515    3.4641 C.ar      1 YZ9900      0.1988 
      18 H31        2.8940    3.4140    8.7951 H         1 YZ9900      0.0000 
      19 H32        2.4735    5.1428    8.8438 H         1 YZ9900      0.0000 
      20 H33        1.5631    3.9774    9.8344 H         1 YZ9900      0.0000 
      21 H112       0.3026    4.6573    7.8302 H         1 YZ9900      0.0000 
      22 H113       0.6899    2.9200    7.8101 H         1 YZ9900      0.0000 
      23 H6         2.9902   -1.9005    4.6944 H         1 YZ9900      0.0000 
      24 H5         3.3601    0.5788    5.2414 H         1 YZ9900      0.0000 
      25 H4        -1.7569   -0.8081    3.1923 H         1 YZ9900      0.0000 
      26 HO4       -1.1923   -3.9358    3.7270 H         1 YZ9900      0.0000 
      27 H10        1.4685   -3.7123    3.8008 H         1 YZ9900      0.0000 
@<TRIPOS>BOND
       1       13       17 1        
       2        7       17 ar       
       3        7       10 ar       
       4        8       10 ar       
       5        8       11 ar       
       6       14       11 2        
       7       17       15 ar       
       8       10        9 ar       
       9       11       16 ar       
      10        2        4 1        
      11        2        1 1        
      12       15        5 ar       
      13        9        5 ar       
      14        9        6 ar       
      15       16        6 ar       
      16       16       12 1        
      17        4       12 1        
      18       12        3 2        
      19       18        1 1        
      20       19        1 1        
      21       20        1 1        
      22       21        2 1        
      23       22        2 1        
      24       23        5 1        
      25       24        6 1        
      26       25        7 1        
      27       26       13 1        
      28       27       15 1        
@<TRIPOS>SUBSTRUCTURE
 1 YZ9900 10 RESIDUE 4 A YZ9900 0 ROOT

