#        scan_R01_S0035_C0000_L00001_S0001_C0002_G0010_E0001.mol2
#        Mon Jun 19 14:41:51 2017
#        Descriptor:     34     4    32     1     3     3
#        Energy - RMSD - RMSD MassCentre:     -39.2178    999.9999    999.9999
#        Receptor:       1  Surface Point:    35  Conformer:     0
#        Ligand:         1  Surface Point:     1  Conformer:     2
#        BUDE Formal Charge: 0
#        ATOM Count: 27
#        Heavy ATOM Count: 17
@<TRIPOS>MOLECULE
pdb1gcz_ligA.pdb_scan_R01_S0035_C0000_L00001_S0001_C0002_G0010_E0001
27 28 1 0 0
SMALL
GASTEIGER
@<TRIPOS>ATOM
       1 C3        -5.4601    5.2392   -3.0966 C.3       1 YZ9900      0.0513 
       2 C11       -5.0633    5.3263   -1.6257 C.3       1 YZ9900      0.2089 
       3 O1        -4.0436    4.9746    0.7719 O.2       1 YZ9900     -0.2447 
       4 O2        -4.1609    4.2621   -1.3125 O.3       1 YZ9900     -0.4453 
       5 C6        -0.8494    1.7651    3.2187 C.ar      1 YZ9900      0.0063 
       6 C5        -2.2884    2.9846    1.5726 C.ar      1 YZ9900      0.0160 
       7 C4        -0.0845   -0.0628    1.2604 C.ar      1 YZ9900      0.0796 
       8 O3        -1.4536    1.0722   -0.3665 O.2       1 YZ9900     -0.4208 
       9 C2        -1.3532    1.8913    1.9198 C.ar      1 YZ9900      0.0353 
      10 C1        -0.9689    0.9728    0.9357 C.ar      1 YZ9900      0.1519 
      11 C7        -2.3335    2.1030   -0.6884 C.ar      1 YZ9900      0.3521 
      12 C12       -3.6980    4.1761   -0.0472 C.2       1 YZ9900      0.3476 
      13 O4         1.2855   -1.2236    2.8283 O.3       1 YZ9900     -0.2865 
      14 O5        -2.7460    2.1719   -1.8345 O.2       1 YZ9900     -0.2442 
      15 C10        0.0347    0.7276    3.5380 C.ar      1 YZ9900      0.0422 
      16 C9        -2.7619    3.0922    0.3256 C.ar      1 YZ9900      0.1515 
      17 C8         0.4229   -0.1941    2.5584 C.ar      1 YZ9900      0.1988 
      18 H31       -5.9575    4.2893   -3.2817 H         1 YZ9900      0.0000 
      19 H32       -6.1362    6.0566   -3.3381 H         1 YZ9900      0.0000 
      20 H33       -4.5689    5.3095   -3.7168 H         1 YZ9900      0.0000 
      21 H112      -5.9522    5.2419   -1.0040 H         1 YZ9900      0.0000 
      22 H113      -4.5769    6.2809   -1.4365 H         1 YZ9900      0.0000 
      23 H6        -1.1415    2.4699    3.9831 H         1 YZ9900      0.0000 
      24 H5        -2.5788    3.6880    2.3390 H         1 YZ9900      0.0000 
      25 H4         0.2091   -0.7689    0.4977 H         1 YZ9900      0.0000 
      26 HO4        1.4291   -1.7719    2.0410 H         1 YZ9900      0.0000 
      27 H10        0.4092    0.6524    4.5482 H         1 YZ9900      0.0000 
@<TRIPOS>BOND
       1       13       17 1        
       2        7       17 ar       
       3        7       10 ar       
       4        8       10 ar       
       5        8       11 ar       
       6       14       11 2        
       7       17       15 ar       
       8       10        9 ar       
       9       11       16 ar       
      10        2        4 1        
      11        2        1 1        
      12       15        5 ar       
      13        9        5 ar       
      14        9        6 ar       
      15       16        6 ar       
      16       16       12 1        
      17        4       12 1        
      18       12        3 2        
      19       18        1 1        
      20       19        1 1        
      21       20        1 1        
      22       21        2 1        
      23       22        2 1        
      24       23        5 1        
      25       24        6 1        
      26       25        7 1        
      27       26       13 1        
      28       27       15 1        
@<TRIPOS>SUBSTRUCTURE
 1 YZ9900 10 RESIDUE 4 A YZ9900 0 ROOT

