#        scan_R01_S0036_C0000_L00001_S0001_C0000_G0010_E0001.mol2
#        Mon Jun 19 14:41:52 2017
#        Descriptor:     10     3    36     2     2     5
#        Energy - RMSD - RMSD MassCentre:     -49.9618    999.9999    999.9999
#        Receptor:       1  Surface Point:    36  Conformer:     0
#        Ligand:         1  Surface Point:     1  Conformer:     0
#        BUDE Formal Charge: 0
#        ATOM Count: 27
#        Heavy ATOM Count: 17
@<TRIPOS>MOLECULE
pdb1gcz_ligA.pdb_scan_R01_S0036_C0000_L00001_S0001_C0000_G0010_E0001
27 28 1 0 0
SMALL
GASTEIGER
@<TRIPOS>ATOM
       1 C3         4.7852   -0.4073    1.2762 C.3       1 YZ9900      0.0513 
       2 C11        3.5731    0.4780    1.2212 C.3       1 YZ9900      0.2089 
       3 O1         1.5416   -2.2484    0.8393 O.2       1 YZ9900     -0.2447 
       4 O2         2.4782   -0.2264    0.5100 O.3       1 YZ9900     -0.4453 
       5 C6        -1.3936   -1.4443    5.1156 C.ar      1 YZ9900      0.0063 
       6 C5         0.0146   -1.3491    3.0256 C.ar      1 YZ9900      0.0160 
       7 C4        -2.2282    1.3316    4.6378 C.ar      1 YZ9900      0.0796 
       8 O3        -0.8539    1.3113    2.6630 O.2       1 YZ9900     -0.4208 
       9 C2        -0.9297   -0.7137    3.9958 C.ar      1 YZ9900      0.0353 
      10 C1        -1.3476    0.6354    3.7801 C.ar      1 YZ9900      0.1519 
      11 C7         0.0302    0.7992    1.8374 C.ar      1 YZ9900      0.3521 
      12 C12        1.5644   -1.0771    1.0668 C.2       1 YZ9900      0.3476 
      13 O4        -3.5041    1.1099    6.6441 O.3       1 YZ9900     -0.2865 
      14 O5         0.4208    1.4598    0.9600 O.2       1 YZ9900     -0.2442 
      15 C10       -2.2831   -0.7863    6.0140 C.ar      1 YZ9900      0.0422 
      16 C9         0.5189   -0.5743    2.0165 C.ar      1 YZ9900      0.1515 
      17 C8        -2.6655    0.5495    5.7556 C.ar      1 YZ9900      0.1988 
      18 H31        4.5333   -1.3380    1.7848 H         1 YZ9900      0.0000 
      19 H32        5.1208   -0.6268    0.2626 H         1 YZ9900      0.0000 
      20 H33        5.5814    0.1004    1.8206 H         1 YZ9900      0.0000 
      21 H112       3.8187    1.3976    0.6900 H         1 YZ9900      0.0000 
      22 H113       3.2523    0.7185    2.2348 H         1 YZ9900      0.0000 
      23 H6        -1.0843   -2.4652    5.2835 H         1 YZ9900      0.0000 
      24 H5         0.2905   -2.3890    3.1186 H         1 YZ9900      0.0000 
      25 H4        -2.5406    2.3513    4.4678 H         1 YZ9900      0.0000 
      26 HO4       -3.0362    1.2765    7.4656 H         1 YZ9900      0.0000 
      27 H10       -2.6610   -1.3034    6.8837 H         1 YZ9900      0.0000 
@<TRIPOS>BOND
       1       13       17 1        
       2        7       17 ar       
       3        7       10 ar       
       4        8       10 ar       
       5        8       11 ar       
       6       14       11 2        
       7       17       15 ar       
       8       10        9 ar       
       9       11       16 ar       
      10        2        4 1        
      11        2        1 1        
      12       15        5 ar       
      13        9        5 ar       
      14        9        6 ar       
      15       16        6 ar       
      16       16       12 1        
      17        4       12 1        
      18       12        3 2        
      19       18        1 1        
      20       19        1 1        
      21       20        1 1        
      22       21        2 1        
      23       22        2 1        
      24       23        5 1        
      25       24        6 1        
      26       25        7 1        
      27       26       13 1        
      28       27       15 1        
@<TRIPOS>SUBSTRUCTURE
 1 YZ9900 10 RESIDUE 4 A YZ9900 0 ROOT

