#        scan_R01_S0036_C0000_L00001_S0001_C0000_G0010_E0001.mol2
#        Mon Jun 19 14:13:37 2017
#        Descriptor:     33    17    16     1     3     6
#        Energy - RMSD - RMSD MassCentre:     -49.3205    999.9999    999.9999
#        Receptor:       1  Surface Point:    36  Conformer:     0
#        Ligand:         1  Surface Point:     1  Conformer:     0
#        BUDE Formal Charge: 0
#        ATOM Count: 27
#        Heavy ATOM Count: 17
@<TRIPOS>MOLECULE
pdb1gcz_ligA.pdb_scan_R01_S0036_C0000_L00001_S0001_C0000_G0010_E0001
27 28 1 0 0
SMALL
GASTEIGER
@<TRIPOS>ATOM
       1 C3         3.4243    2.2785    1.8031 C.3       1 YZ9900      0.0513 
       2 C11        2.3065    2.8357    2.6374 C.3       1 YZ9900      0.2089 
       3 O1        -0.0082    1.2549    0.6756 O.2       1 YZ9900     -0.2447 
       4 O2         1.0583    2.8640    1.8363 O.3       1 YZ9900     -0.4453 
       5 C6        -2.2028   -1.6118    4.4854 C.ar      1 YZ9900      0.0063 
       6 C5        -1.1099    0.1051    2.9961 C.ar      1 YZ9900      0.0160 
       7 C4        -2.8308    0.5127    6.4148 C.ar      1 YZ9900      0.0796 
       8 O3        -1.7655    2.0654    4.9171 O.2       1 YZ9900     -0.4208 
       9 C2        -1.8390   -0.2648    4.2484 C.ar      1 YZ9900      0.0353 
      10 C1        -2.1538    0.7546    5.1986 C.ar      1 YZ9900      0.1519 
      11 C7        -1.0630    2.4027    3.8596 C.ar      1 YZ9900      0.3521 
      12 C12        0.1583    1.8441    1.6999 C.2       1 YZ9900      0.3476 
      13 O4        -3.8176   -1.2163    7.7336 O.3       1 YZ9900     -0.2865 
      14 O5        -0.7429    3.5167    3.7359 O.2       1 YZ9900     -0.2442 
      15 C10       -2.8862   -1.9098    5.7001 C.ar      1 YZ9900      0.0422 
      16 C9        -0.6860    1.3988    2.8560 C.ar      1 YZ9900      0.1515 
      17 C8        -3.1736   -0.8649    6.6073 C.ar      1 YZ9900      0.1988 
      18 H31        3.1616    1.2758    1.4658 H         1 YZ9900      0.0000 
      19 H32        3.5870    2.9216    0.9381 H         1 YZ9900      0.0000 
      20 H33        4.3355    2.2343    2.3995 H         1 YZ9900      0.0000 
      21 H112       2.5587    3.8481    2.9530 H         1 YZ9900      0.0000 
      22 H113       2.1604    2.2070    3.5158 H         1 YZ9900      0.0000 
      23 H6        -1.9707   -2.3871    3.7705 H         1 YZ9900      0.0000 
      24 H5        -0.9232   -0.6274    2.2247 H         1 YZ9900      0.0000 
      25 H4        -3.0663    1.2887    7.1280 H         1 YZ9900      0.0000 
      26 HO4       -3.2218   -1.7083    8.3032 H         1 YZ9900      0.0000 
      27 H10       -3.1814   -2.9241    5.9251 H         1 YZ9900      0.0000 
@<TRIPOS>BOND
       1       13       17 1        
       2        7       17 ar       
       3        7       10 ar       
       4        8       10 ar       
       5        8       11 ar       
       6       14       11 2        
       7       17       15 ar       
       8       10        9 ar       
       9       11       16 ar       
      10        2        4 1        
      11        2        1 1        
      12       15        5 ar       
      13        9        5 ar       
      14        9        6 ar       
      15       16        6 ar       
      16       16       12 1        
      17        4       12 1        
      18       12        3 2        
      19       18        1 1        
      20       19        1 1        
      21       20        1 1        
      22       21        2 1        
      23       22        2 1        
      24       23        5 1        
      25       24        6 1        
      26       25        7 1        
      27       26       13 1        
      28       27       15 1        
@<TRIPOS>SUBSTRUCTURE
 1 YZ9900 10 RESIDUE 4 A YZ9900 0 ROOT

