#        scan_R01_S0036_C0000_L00001_S0001_C0002_G0010_E0001.mol2
#        Mon Jun 19 14:41:52 2017
#        Descriptor:     17    10    21     1     3     7
#        Energy - RMSD - RMSD MassCentre:     -55.9092    999.9999    999.9999
#        Receptor:       1  Surface Point:    36  Conformer:     0
#        Ligand:         1  Surface Point:     1  Conformer:     2
#        BUDE Formal Charge: 0
#        ATOM Count: 27
#        Heavy ATOM Count: 17
@<TRIPOS>MOLECULE
pdb1gcz_ligA.pdb_scan_R01_S0036_C0000_L00001_S0001_C0002_G0010_E0001
27 28 1 0 0
SMALL
GASTEIGER
@<TRIPOS>ATOM
       1 C3        -2.9568    0.1406   -2.0765 C.3       1 YZ9900      0.0513 
       2 C11       -3.7207   -0.1285   -0.7832 C.3       1 YZ9900      0.2089 
       3 O1        -4.5158   -0.3870    1.7094 O.2       1 YZ9900     -0.2447 
       4 O2        -2.8963    0.2092    0.3354 O.3       1 YZ9900     -0.4453 
       5 C6        -2.7285    0.3893    6.4731 C.ar      1 YZ9900      0.0063 
       6 C5        -3.0742    0.2099    4.0001 C.ar      1 YZ9900      0.0160 
       7 C4        -0.1508    1.3721    6.0844 C.ar      1 YZ9900      0.0796 
       8 O3        -0.4284    1.2204    3.6950 O.2       1 YZ9900     -0.4208 
       9 C2        -2.2391    0.5528    5.1729 C.ar      1 YZ9900      0.0353 
      10 C1        -0.9438    1.0466    4.9775 C.ar      1 YZ9900      0.1519 
      11 C7        -1.2184    0.8963    2.5944 C.ar      1 YZ9900      0.3521 
      12 C12       -3.4067    0.0365    1.5732 C.2       1 YZ9900      0.3476 
      13 O4         0.1778    1.5427    8.4393 O.3       1 YZ9900     -0.2865 
      14 O5        -0.7479    1.0560    1.4802 O.2       1 YZ9900     -0.2442 
      15 C10       -1.9312    0.7163    7.5765 C.ar      1 YZ9900      0.0422 
      16 C9        -2.5920    0.3718    2.7624 C.ar      1 YZ9900      0.1515 
      17 C8        -0.6352    1.2106    7.3878 C.ar      1 YZ9900      0.1988 
      18 H31       -2.0595   -0.4744   -2.1016 H         1 YZ9900      0.0000 
      19 H32       -3.5888   -0.1038   -2.9277 H         1 YZ9900      0.0000 
      20 H33       -2.6784    1.1914   -2.1206 H         1 YZ9900      0.0000 
      21 H112      -3.9875   -1.1820   -0.7312 H         1 YZ9900      0.0000 
      22 H113      -4.6246    0.4766   -0.7625 H         1 YZ9900      0.0000 
      23 H6        -3.7268    0.0088    6.6316 H         1 YZ9900      0.0000 
      24 H5        -4.0721   -0.1704    4.1615 H         1 YZ9900      0.0000 
      25 H4         0.8478    1.7528    5.9286 H         1 YZ9900      0.0000 
      26 HO4        1.0429    1.8500    8.1260 H         1 YZ9900      0.0000 
      27 H10       -2.3328    0.5807    8.5699 H         1 YZ9900      0.0000 
@<TRIPOS>BOND
       1       13       17 1        
       2        7       17 ar       
       3        7       10 ar       
       4        8       10 ar       
       5        8       11 ar       
       6       14       11 2        
       7       17       15 ar       
       8       10        9 ar       
       9       11       16 ar       
      10        2        4 1        
      11        2        1 1        
      12       15        5 ar       
      13        9        5 ar       
      14        9        6 ar       
      15       16        6 ar       
      16       16       12 1        
      17        4       12 1        
      18       12        3 2        
      19       18        1 1        
      20       19        1 1        
      21       20        1 1        
      22       21        2 1        
      23       22        2 1        
      24       23        5 1        
      25       24        6 1        
      26       25        7 1        
      27       26       13 1        
      28       27       15 1        
@<TRIPOS>SUBSTRUCTURE
 1 YZ9900 10 RESIDUE 4 A YZ9900 0 ROOT

