#        1GCZ_R01_S0001_C0000_L00004_S0001_C0010_G0010_E0001.mol2
#        Tue Jun  6 09:55:27 2017
#        Descriptor:      4    35    24     8     9    11
#        Energy - RMSD - RMSD MassCentre:     -77.3392    999.9999    999.9999
#        Receptor:       1  Surface Point:     1  Conformer:     0
#        Ligand:         4  Surface Point:     1  Conformer:    10
#        BUDE Formal Charge: 0
#        ATOM Count: 46
#        Heavy ATOM Count: 28
@<TRIPOS>MOLECULE
ZINC61563277_1GCZ_R01_S0001_C0000_L00004_S0001_C0010_G0010_E0001
 46 49 0 0 0
SMALL
USER_CHARGES
@<TRIPOS>ATOM
       1 C1        -1.1298   -1.0325    7.3596 C.3       1 <0>        -0.1051 
       2 C2        -0.6555    0.3851    7.5722 C.2       1 <0>         0.1324 
       3 C3        -1.1072    1.2336    8.5057 C.2       1 <0>        -0.1714 
       4 C4        -0.3638    2.5295    8.3394 C.ar      1 <0>        -0.0773 
       5 C5        -0.4018    3.7776    8.9723 C.ar      1 <0>        -0.0675 
       6 C6         0.5235    4.7296    8.5276 C.ar      1 <0>        -0.1361 
       7 C7         1.4585    4.4133    7.5332 C.ar      1 <0>        -0.0920 
       8 C8         1.4871    3.1552    6.9196 C.ar      1 <0>        -0.1265 
       9 C9         0.5176    2.2184    7.2972 C.ar      1 <0>         0.1084 
      10 N1         0.2694    0.9724    6.8405 N.pl3     1 <0>        -0.4675 
      11 C10        0.9689    0.3493    5.6962 C.3       1 <0>         0.1242 
      12 C11        0.3417    0.8189    4.4056 C.2       1 <0>         0.4463 
      13 O1         0.9699    1.4975    3.6487 O.2       1 <0>        -0.4704 
      14 O2        -0.9285    0.4720    4.1074 O.3       1 <0>        -0.3437 
      15 C12       -1.4798    0.9404    2.8738 C.3       1 <0>         0.1567 
      16 C13       -0.6947    0.3619    1.7209 C.2       1 <0>         0.2874 
      17 N2         0.0734    0.8652    0.7727 N.2       1 <0>        -0.5106 
      18 C14        0.5605   -0.1639   -0.0419 C.2       1 <0>         0.2609 
      19 N3         0.0968   -1.2785    0.3834 N.2       1 <0>        -0.3200 
      20 O3        -0.7124   -1.0125    1.4946 O.3       1 <0>        -0.0928 
      21 C15        1.4930    0.0023   -1.2179 C.3       1 <0>         0.0037 
      22 C16        0.6833    0.1577   -2.4830 C.ar      1 <0>        -0.0973 
      23 C17        0.3258   -0.9645   -3.2400 C.ar      1 <0>        -0.0995 
      24 C18       -0.4435   -0.8252   -4.4014 C.ar      1 <0>        -0.1207 
      25 C19       -0.8444    0.4422   -4.8300 C.ar      1 <0>        -0.1122 
      26 C20       -0.4811    1.5698   -4.0840 C.ar      1 <0>        -0.1201 
      27 C21        0.2866    1.4264   -2.9221 C.ar      1 <0>        -0.1046 
      28 Br1       -2.4151    0.9095    9.8167 Br        1 <0>        -0.0155 
      29 H1        -0.2935   -1.7169    7.4858 H         1 <0>         0.0903 
      30 H2        -1.5325   -1.1326    6.3539 H         1 <0>         0.0953 
      31 H3        -1.9046   -1.2679    8.0863 H         1 <0>         0.0712 
      32 H4        -1.0950    4.0195    9.7646 H         1 <0>         0.1274 
      33 H5         0.5138    5.7087    8.9831 H         1 <0>         0.1276 
      34 H6         2.1853    5.1516    7.2280 H         1 <0>         0.1296 
      35 H7         2.2589    2.9575    6.1906 H         1 <0>         0.1206 
      36 H8         0.8851   -0.7331    5.7666 H         1 <0>         0.1394 
      37 H9         2.0191    0.6330    5.7141 H         1 <0>         0.1404 
      38 H10       -1.4249    2.0266    2.8421 H         1 <0>         0.1240 
      39 H11       -2.5189    0.6267    2.7995 H         1 <0>         0.1139 
      40 H12        2.1314   -0.8748   -1.3004 H         1 <0>         0.1085 
      41 H13        2.1085    0.8871   -1.0695 H         1 <0>         0.1144 
      42 H14        0.6442   -1.9510   -2.9373 H         1 <0>         0.1277 
      43 H15       -0.7161   -1.6994   -4.9738 H         1 <0>         0.1259 
      44 H16       -1.4397    0.5566   -5.7238 H         1 <0>         0.1247 
      45 H17       -0.7937    2.5517   -4.4079 H         1 <0>         0.1255 
      46 H18        0.5725    2.3083   -2.3682 H         1 <0>         0.1245 
@<TRIPOS>BOND
       1        1        2 1        
       2        1       29 1        
       3        1       30 1        
       4        1       31 1        
       5        2       10 1        
       6        2        3 2        
       7        3        4 1        
       8        3       28 1        
       9        4        9 ar       
      10        4        5 ar       
      11        5        6 ar       
      12        5       32 1        
      13        6        7 ar       
      14        6       33 1        
      15        7        8 ar       
      16        7       34 1        
      17        8        9 ar       
      18        8       35 1        
      19        9       10 1        
      20       10       11 1        
      21       11       12 1        
      22       11       36 1        
      23       11       37 1        
      24       12       13 2        
      25       12       14 1        
      26       14       15 1        
      27       15       16 1        
      28       15       38 1        
      29       15       39 1        
      30       16       20 1        
      31       16       17 2        
      32       17       18 1        
      33       18       19 2        
      34       18       21 1        
      35       19       20 1        
      36       21       22 1        
      37       21       40 1        
      38       21       41 1        
      39       22       27 ar       
      40       22       23 ar       
      41       23       24 ar       
      42       23       42 1        
      43       24       25 ar       
      44       24       43 1        
      45       25       26 ar       
      46       25       44 1        
      47       26       27 ar       
      48       26       45 1        
      49       27       46 1        

