#        scan_R01_S0036_C0000_L00001_S0001_C0003_G0010_E0001.mol2
#        Mon Jun 19 14:13:38 2017
#        Descriptor:     13    10    24     1     3     7
#        Energy - RMSD - RMSD MassCentre:     -55.9447    999.9999    999.9999
#        Receptor:       1  Surface Point:    36  Conformer:     0
#        Ligand:         1  Surface Point:     1  Conformer:     3
#        BUDE Formal Charge: 0
#        ATOM Count: 27
#        Heavy ATOM Count: 17
@<TRIPOS>MOLECULE
pdb1gcz_ligA.pdb_scan_R01_S0036_C0000_L00001_S0001_C0003_G0010_E0001
27 28 1 0 0
SMALL
GASTEIGER
@<TRIPOS>ATOM
       1 C3        -4.0244   -1.5910   -0.7586 C.3       1 YZ9900      0.0513 
       2 C11       -3.4195   -0.1974   -0.9020 C.3       1 YZ9900      0.2089 
       3 O1        -4.4353   -0.0989    1.5209 O.2       1 YZ9900     -0.2447 
       4 O2        -2.6384    0.1039    0.2574 O.3       1 YZ9900     -0.4453 
       5 C6        -2.9140    0.8093    6.3532 C.ar      1 YZ9900      0.0063 
       6 C5        -3.0942    0.4646    3.8801 C.ar      1 YZ9900      0.0160 
       7 C4        -0.1863    1.3281    6.1250 C.ar      1 YZ9900      0.0796 
       8 O3        -0.3013    1.0072    3.7390 O.2       1 YZ9900     -0.4208 
       9 C2        -2.3059    0.7742    5.0939 C.ar      1 YZ9900      0.0353 
      10 C1        -0.9353    1.0348    4.9791 C.ar      1 YZ9900      0.1519 
      11 C7        -1.0476    0.7154    2.5996 C.ar      1 YZ9900      0.3521 
      12 C12       -3.2639    0.1277    1.4536 C.2       1 YZ9900      0.3476 
      13 O4        -0.0153    1.6562    8.4800 O.3       1 YZ9900     -0.2865 
      14 O5        -0.4730    0.6964    1.5235 O.2       1 YZ9900     -0.2442 
      15 C10       -2.1602    1.1031    7.4959 C.ar      1 YZ9900      0.0422 
      16 C9        -2.4983    0.4346    2.6823 C.ar      1 YZ9900      0.1515 
      17 C8        -0.7893    1.3647    7.3878 C.ar      1 YZ9900      0.1988 
      18 H31       -4.6694   -1.6172    0.1173 H         1 YZ9900      0.0000 
      19 H32       -4.6076   -1.8256   -1.6465 H         1 YZ9900      0.0000 
      20 H33       -3.2267   -2.3219   -0.6444 H         1 YZ9900      0.0000 
      21 H112      -4.2166    0.5362   -1.0022 H         1 YZ9900      0.0000 
      22 H113      -2.7840   -0.1663   -1.7846 H         1 YZ9900      0.0000 
      23 H6        -3.9709    0.6093    6.4494 H         1 YZ9900      0.0000 
      24 H5        -4.1510    0.2649    3.9792 H         1 YZ9900      0.0000 
      25 H4         0.8709    1.5285    6.0315 H         1 YZ9900      0.0000 
      26 HO4        0.9104    1.7917    8.2236 H         1 YZ9900      0.0000 
      27 H10       -2.6538    1.1239    8.4563 H         1 YZ9900      0.0000 
@<TRIPOS>BOND
       1       13       17 1        
       2        7       17 ar       
       3        7       10 ar       
       4        8       10 ar       
       5        8       11 ar       
       6       14       11 2        
       7       17       15 ar       
       8       10        9 ar       
       9       11       16 ar       
      10        2        4 1        
      11        2        1 1        
      12       15        5 ar       
      13        9        5 ar       
      14        9        6 ar       
      15       16        6 ar       
      16       16       12 1        
      17        4       12 1        
      18       12        3 2        
      19       18        1 1        
      20       19        1 1        
      21       20        1 1        
      22       21        2 1        
      23       22        2 1        
      24       23        5 1        
      25       24        6 1        
      26       25        7 1        
      27       26       13 1        
      28       27       15 1        
@<TRIPOS>SUBSTRUCTURE
 1 YZ9900 10 RESIDUE 4 A YZ9900 0 ROOT

