#        scan_R01_S0037_C0000_L00001_S0001_C0000_G0010_E0001.mol2
#        Mon Jun 19 14:13:39 2017
#        Descriptor:     11    18    11     1     2     7
#        Energy - RMSD - RMSD MassCentre:     -68.2117    999.9999    999.9999
#        Receptor:       1  Surface Point:    37  Conformer:     0
#        Ligand:         1  Surface Point:     1  Conformer:     0
#        BUDE Formal Charge: 0
#        ATOM Count: 27
#        Heavy ATOM Count: 17
@<TRIPOS>MOLECULE
pdb1gcz_ligA.pdb_scan_R01_S0037_C0000_L00001_S0001_C0000_G0010_E0001
27 28 1 0 0
SMALL
GASTEIGER
@<TRIPOS>ATOM
       1 C3        -0.1345   -3.1778    8.8971 C.3       1 YZ9900      0.0513 
       2 C11       -1.2311   -2.4306    8.1935 C.3       1 YZ9900      0.2089 
       3 O1         0.7367    0.3610    7.9924 O.2       1 YZ9900     -0.2447 
       4 O2        -1.0363   -0.9723    8.3832 O.3       1 YZ9900     -0.4453 
       5 C6         0.6982    0.7768    2.7603 C.ar      1 YZ9900      0.0063 
       6 C5         0.2596    0.4314    5.2196 C.ar      1 YZ9900      0.0160 
       7 C4        -2.1989    0.7457    2.2748 C.ar      1 YZ9900      0.0796 
       8 O3        -2.5020    0.4196    4.6392 O.2       1 YZ9900     -0.4208 
       9 C2        -0.2280    0.6080    3.8169 C.ar      1 YZ9900      0.0353 
      10 C1        -1.6336    0.5962    3.5608 C.ar      1 YZ9900      0.1519 
      11 C7        -2.0962    0.1917    5.8676 C.ar      1 YZ9900      0.3521 
      12 C12       -0.2713   -0.1479    7.6061 C.2       1 YZ9900      0.3476 
      13 O4        -1.6410    1.0571   -0.0262 O.3       1 YZ9900     -0.2865 
      14 O5        -2.8977    0.0070    6.6935 O.2       1 YZ9900     -0.2442 
      15 C10        0.1791    0.9295    1.4418 C.ar      1 YZ9900      0.0422 
      16 C9        -0.6644    0.1673    6.1940 C.ar      1 YZ9900      0.1515 
      17 C8        -1.2199    0.9103    1.2419 C.ar      1 YZ9900      0.1988 
      18 H31        0.8315   -2.8646    8.5010 H         1 YZ9900      0.0000 
      19 H32       -0.1760   -2.9629    9.9650 H         1 YZ9900      0.0000 
      20 H33       -0.2634   -4.2482    8.7367 H         1 YZ9900      0.0000 
      21 H112      -2.1953   -2.7253    8.6078 H         1 YZ9900      0.0000 
      22 H113      -1.2059   -2.6651    7.1293 H         1 YZ9900      0.0000 
      23 H6         1.7618    0.7895    2.9467 H         1 YZ9900      0.0000 
      24 H5         1.3102    0.5100    5.4568 H         1 YZ9900      0.0000 
      25 H4        -3.2627    0.7368    2.0889 H         1 YZ9900      0.0000 
      26 HO4       -1.4382    0.2626   -0.5252 H         1 YZ9900      0.0000 
      27 H10        0.8481    1.0586    0.6038 H         1 YZ9900      0.0000 
@<TRIPOS>BOND
       1       13       17 1        
       2        7       17 ar       
       3        7       10 ar       
       4        8       10 ar       
       5        8       11 ar       
       6       14       11 2        
       7       17       15 ar       
       8       10        9 ar       
       9       11       16 ar       
      10        2        4 1        
      11        2        1 1        
      12       15        5 ar       
      13        9        5 ar       
      14        9        6 ar       
      15       16        6 ar       
      16       16       12 1        
      17        4       12 1        
      18       12        3 2        
      19       18        1 1        
      20       19        1 1        
      21       20        1 1        
      22       21        2 1        
      23       22        2 1        
      24       23        5 1        
      25       24        6 1        
      26       25        7 1        
      27       26       13 1        
      28       27       15 1        
@<TRIPOS>SUBSTRUCTURE
 1 YZ9900 10 RESIDUE 4 A YZ9900 0 ROOT

