#        scan_R01_S0037_C0000_L00001_S0001_C0002_G0010_E0001.mol2
#        Mon Jun 19 14:41:54 2017
#        Descriptor:     18    23    27     1     1     6
#        Energy - RMSD - RMSD MassCentre:     -66.6789    999.9999    999.9999
#        Receptor:       1  Surface Point:    37  Conformer:     0
#        Ligand:         1  Surface Point:     1  Conformer:     2
#        BUDE Formal Charge: 0
#        ATOM Count: 27
#        Heavy ATOM Count: 17
@<TRIPOS>MOLECULE
pdb1gcz_ligA.pdb_scan_R01_S0037_C0000_L00001_S0001_C0002_G0010_E0001
27 28 1 0 0
SMALL
GASTEIGER
@<TRIPOS>ATOM
       1 C3        -1.0807   -5.0343   10.1938 C.3       1 YZ9900      0.0513 
       2 C11       -1.0522   -3.5238    9.9791 C.3       1 YZ9900      0.2089 
       3 O1        -1.0082   -1.0800    9.0106 O.2       1 YZ9900     -0.2447 
       4 O2        -1.0515   -3.2425    8.5770 O.3       1 YZ9900     -0.4453 
       5 C6        -0.9776    1.3080    4.4513 C.ar      1 YZ9900      0.0063 
       6 C5        -1.0029   -0.3335    6.3414 C.ar      1 YZ9900      0.0160 
       7 C4        -1.0241   -0.7669    2.5927 C.ar      1 YZ9900      0.0796 
       8 O3        -1.0494   -2.3918    4.3727 O.2       1 YZ9900     -0.4208 
       9 C2        -1.0018   -0.0184    4.8954 C.ar      1 YZ9900      0.0353 
      10 C1        -1.0251   -1.0610    3.9615 C.ar      1 YZ9900      0.1519 
      11 C7        -1.0504   -2.6832    5.7348 C.ar      1 YZ9900      0.3521 
      12 C12       -1.0278   -1.9491    8.1907 C.2       1 YZ9900      0.3476 
      13 O4        -1.0000    0.7966    0.7933 O.3       1 YZ9900     -0.2865 
      14 O5        -1.0719   -3.8551    6.0735 O.2       1 YZ9900     -0.2442 
      15 C10       -0.9767    1.5965    3.0813 C.ar      1 YZ9900      0.0422 
      16 C9        -1.0261   -1.6073    6.7508 C.ar      1 YZ9900      0.1515 
      17 C8        -1.0000    0.5584    2.1424 C.ar      1 YZ9900      0.1988 
      18 H31       -0.1954   -5.4805    9.7452 H         1 YZ9900      0.0000 
      19 H32       -1.0946   -5.2481   11.2604 H         1 YZ9900      0.0000 
      20 H33       -1.9722   -5.4494    9.7284 H         1 YZ9900      0.0000 
      21 H112      -0.1539   -3.1093   10.4318 H         1 YZ9900      0.0000 
      22 H113      -1.9306   -3.0750   10.4379 H         1 YZ9900      0.0000 
      23 H6        -0.9595    2.1175    5.1660 H         1 YZ9900      0.0000 
      24 H5        -0.9848    0.4780    7.0539 H         1 YZ9900      0.0000 
      25 H4        -1.0422   -1.5747    1.8760 H         1 YZ9900      0.0000 
      26 HO4       -1.0000   -0.0349    0.2938 H         1 YZ9900      0.0000 
      27 H10       -0.9578    2.6289    2.7648 H         1 YZ9900      0.0000 
@<TRIPOS>BOND
       1       13       17 1        
       2        7       17 ar       
       3        7       10 ar       
       4        8       10 ar       
       5        8       11 ar       
       6       14       11 2        
       7       17       15 ar       
       8       10        9 ar       
       9       11       16 ar       
      10        2        4 1        
      11        2        1 1        
      12       15        5 ar       
      13        9        5 ar       
      14        9        6 ar       
      15       16        6 ar       
      16       16       12 1        
      17        4       12 1        
      18       12        3 2        
      19       18        1 1        
      20       19        1 1        
      21       20        1 1        
      22       21        2 1        
      23       22        2 1        
      24       23        5 1        
      25       24        6 1        
      26       25        7 1        
      27       26       13 1        
      28       27       15 1        
@<TRIPOS>SUBSTRUCTURE
 1 YZ9900 10 RESIDUE 4 A YZ9900 0 ROOT

