#        scan_R01_S0037_C0000_L00001_S0001_C0003_G0010_E0001.mol2
#        Mon Jun 19 14:41:54 2017
#        Descriptor:     34    31    11     1     2     5
#        Energy - RMSD - RMSD MassCentre:     -66.7883    999.9999    999.9999
#        Receptor:       1  Surface Point:    37  Conformer:     0
#        Ligand:         1  Surface Point:     1  Conformer:     3
#        BUDE Formal Charge: 0
#        ATOM Count: 27
#        Heavy ATOM Count: 17
@<TRIPOS>MOLECULE
pdb1gcz_ligA.pdb_scan_R01_S0037_C0000_L00001_S0001_C0003_G0010_E0001
27 28 1 0 0
SMALL
GASTEIGER
@<TRIPOS>ATOM
       1 C3        -0.2048   -1.5909    9.7718 C.3       1 YZ9900      0.0513 
       2 C11       -0.7619   -2.7076    8.8935 C.3       1 YZ9900      0.2089 
       3 O1        -1.9447   -0.5866    7.8864 O.2       1 YZ9900     -0.2447 
       4 O2        -0.6480   -2.3328    7.5182 O.3       1 YZ9900     -0.4453 
       5 C6        -2.4005    1.8514    3.3765 C.ar      1 YZ9900      0.0063 
       6 C5        -1.8462    0.3014    5.2626 C.ar      1 YZ9900      0.0160 
       7 C4        -0.8770    0.3218    1.6156 C.ar      1 YZ9900      0.0796 
       8 O3        -0.3106   -1.2033    3.3939 O.2       1 YZ9900     -0.4208 
       9 C2        -1.7428    0.7085    3.8435 C.ar      1 YZ9900      0.0353 
      10 C1        -0.9772   -0.0601    2.9587 C.ar      1 YZ9900      0.1519 
      11 C7        -0.4110   -1.5824    4.7305 C.ar      1 YZ9900      0.3521 
      12 C12       -1.2985   -1.2230    7.1083 C.2       1 YZ9900      0.3476 
      13 O4        -1.4052    1.7981   -0.1801 O.3       1 YZ9900     -0.2865 
      14 O5         0.1805   -2.5867    5.0908 O.2       1 YZ9900     -0.2442 
      15 C10       -2.2969    2.2288    2.0323 C.ar      1 YZ9900      0.0422 
      16 C9        -1.2111   -0.7945    5.6945 C.ar      1 YZ9900      0.1515 
      17 C8        -1.5329    1.4645    1.1425 C.ar      1 YZ9900      0.1988 
      18 H31       -0.7771   -0.6805    9.6062 H         1 YZ9900      0.0000 
      19 H32       -0.2791   -1.8817   10.8176 H         1 YZ9900      0.0000 
      20 H33        0.8383   -1.4159    9.5167 H         1 YZ9900      0.0000 
      21 H112      -1.8089   -2.8739    9.1379 H         1 YZ9900      0.0000 
      22 H113      -0.1984   -3.6219    9.0674 H         1 YZ9900      0.0000 
      23 H6        -2.9929    2.4492    4.0532 H         1 YZ9900      0.0000 
      24 H5        -2.4393    0.9010    5.9373 H         1 YZ9900      0.0000 
      25 H4        -0.2852   -0.2744    0.9367 H         1 YZ9900      0.0000 
      26 HO4       -0.8280    1.1704   -0.6425 H         1 YZ9900      0.0000 
      27 H10       -2.8145    3.1154    1.6971 H         1 YZ9900      0.0000 
@<TRIPOS>BOND
       1       13       17 1        
       2        7       17 ar       
       3        7       10 ar       
       4        8       10 ar       
       5        8       11 ar       
       6       14       11 2        
       7       17       15 ar       
       8       10        9 ar       
       9       11       16 ar       
      10        2        4 1        
      11        2        1 1        
      12       15        5 ar       
      13        9        5 ar       
      14        9        6 ar       
      15       16        6 ar       
      16       16       12 1        
      17        4       12 1        
      18       12        3 2        
      19       18        1 1        
      20       19        1 1        
      21       20        1 1        
      22       21        2 1        
      23       22        2 1        
      24       23        5 1        
      25       24        6 1        
      26       25        7 1        
      27       26       13 1        
      28       27       15 1        
@<TRIPOS>SUBSTRUCTURE
 1 YZ9900 10 RESIDUE 4 A YZ9900 0 ROOT

