#        1GCZ_R01_S0001_C0000_L00004_S0001_C0010_G0010_E0001.mol2
#        Tue Jun  6 14:05:30 2017
#        Descriptor:     22    20     6     8     8    11
#        Energy - RMSD - RMSD MassCentre:     -75.9848    999.9999    999.9999
#        Receptor:       1  Surface Point:     1  Conformer:     0
#        Ligand:         4  Surface Point:     1  Conformer:    10
#        BUDE Formal Charge: 0
#        ATOM Count: 46
#        Heavy ATOM Count: 28
@<TRIPOS>MOLECULE
ZINC61563277_1GCZ_R01_S0001_C0000_L00004_S0001_C0010_G0010_E0001
 46 49 0 0 0
SMALL
USER_CHARGES
@<TRIPOS>ATOM
       1 C1        -1.4907   -2.6576    6.8896 C.3       1 <0>        -0.1051 
       2 C2        -1.0459   -1.2911    7.3534 C.2       1 <0>         0.1324 
       3 C3        -1.5826   -0.5897    8.3610 C.2       1 <0>        -0.1714 
       4 C4        -0.8361    0.7115    8.4567 C.ar      1 <0>        -0.0773 
       5 C5        -0.9371    1.8505    9.2644 C.ar      1 <0>        -0.0675 
       6 C6         0.0171    2.8524    9.0499 C.ar      1 <0>        -0.1361 
       7 C7         1.0369    2.6831    8.1043 C.ar      1 <0>        -0.0920 
       8 C8         1.1270    1.5314    7.3132 C.ar      1 <0>        -0.1265 
       9 C9         0.1345    0.5549    7.4600 C.ar      1 <0>         0.1084 
      10 N1        -0.0649   -0.6066    6.8014 N.pl3     1 <0>        -0.4675 
      11 C10        0.7354   -1.0551    5.6415 C.3       1 <0>         0.1242 
      12 C11        0.2195   -0.3926    4.3866 C.2       1 <0>         0.4463 
      13 O1         0.9066    0.3879    3.7978 O.2       1 <0>        -0.4704 
      14 O2        -1.0177   -0.6824    3.9306 O.3       1 <0>        -0.3437 
      15 C12       -1.4628   -0.0302    2.7383 C.3       1 <0>         0.1567 
      16 C13       -0.5768   -0.4339    1.5841 C.2       1 <0>         0.2874 
      17 N2         0.2674    0.2012    0.7926 N.2       1 <0>        -0.5106 
      18 C14        0.8301   -0.6969   -0.1220 C.2       1 <0>         0.2609 
      19 N3         0.3386   -1.8597    0.0889 N.2       1 <0>        -0.3200 
      20 O3        -0.5658   -1.7585    1.1529 O.3       1 <0>        -0.0928 
      21 C15        1.8601   -0.3619   -1.1742 C.3       1 <0>         0.0037 
      22 C16        1.1623   -0.0126   -2.4670 C.ar      1 <0>        -0.0973 
      23 C17        0.8792   -1.0058   -3.4124 C.ar      1 <0>        -0.0995 
      24 C18        0.2128   -0.6885   -4.6019 C.ar      1 <0>        -0.1207 
      25 C19       -0.1577    0.6316   -4.8682 C.ar      1 <0>        -0.1122 
      26 C20        0.1320    1.6318   -3.9325 C.ar      1 <0>        -0.1201 
      27 C21        0.7969    1.3102   -2.7431 C.ar      1 <0>        -0.1046 
      28 Br1       -2.9972   -1.0987    9.4898 Br        1 <0>        -0.0155 
      29 H1        -0.6640   -3.3586    6.9836 H         1 <0>         0.0903 
      30 H2        -1.8038   -2.6025    5.8492 H         1 <0>         0.0953 
      31 H3        -2.3240   -2.9944    7.5026 H         1 <0>         0.0712 
      32 H4        -1.6980    1.9750   10.0208 H         1 <0>         0.1274 
      33 H5        -0.0386    3.7519    9.6449 H         1 <0>         0.1276 
      34 H6         1.7826    3.4541    7.9778 H         1 <0>         0.1296 
      35 H7         1.9605    1.4405    6.6326 H         1 <0>         0.1206 
      36 H8         0.6529   -2.1352    5.5407 H         1 <0>         0.1394 
      37 H9         1.7782   -0.7843    5.7930 H         1 <0>         0.1404 
      38 H10       -1.4125    1.0480    2.8751 H         1 <0>         0.1240 
      39 H11       -2.4895   -0.3223    2.5277 H         1 <0>         0.1139 
      40 H12        2.5090   -1.2207   -1.3320 H         1 <0>         0.1085 
      41 H13        2.4546    0.4865   -0.8416 H         1 <0>         0.1144 
      42 H14        1.1767   -2.0287   -3.2350 H         1 <0>         0.1277 
      43 H15       -0.0033   -1.4648   -5.3208 H         1 <0>         0.1259 
      44 H16       -0.6739    0.8831   -5.7829 H         1 <0>         0.1247 
      45 H17       -0.1577    2.6532   -4.1309 H         1 <0>         0.1255 
      46 H18        1.0278    2.0969   -2.0402 H         1 <0>         0.1245 
@<TRIPOS>BOND
       1        1        2 1        
       2        1       29 1        
       3        1       30 1        
       4        1       31 1        
       5        2       10 1        
       6        2        3 2        
       7        3        4 1        
       8        3       28 1        
       9        4        9 ar       
      10        4        5 ar       
      11        5        6 ar       
      12        5       32 1        
      13        6        7 ar       
      14        6       33 1        
      15        7        8 ar       
      16        7       34 1        
      17        8        9 ar       
      18        8       35 1        
      19        9       10 1        
      20       10       11 1        
      21       11       12 1        
      22       11       36 1        
      23       11       37 1        
      24       12       13 2        
      25       12       14 1        
      26       14       15 1        
      27       15       16 1        
      28       15       38 1        
      29       15       39 1        
      30       16       20 1        
      31       16       17 2        
      32       17       18 1        
      33       18       19 2        
      34       18       21 1        
      35       19       20 1        
      36       21       22 1        
      37       21       40 1        
      38       21       41 1        
      39       22       27 ar       
      40       22       23 ar       
      41       23       24 ar       
      42       23       42 1        
      43       24       25 ar       
      44       24       43 1        
      45       25       26 ar       
      46       25       44 1        
      47       26       27 ar       
      48       26       45 1        
      49       27       46 1        

