#        scan_R01_S0038_C0000_L00001_S0001_C0000_G0010_E0001.mol2
#        Mon Jun 19 14:41:55 2017
#        Descriptor:      7     5     6     1     2     5
#        Energy - RMSD - RMSD MassCentre:     -28.0598    999.9999    999.9999
#        Receptor:       1  Surface Point:    38  Conformer:     0
#        Ligand:         1  Surface Point:     1  Conformer:     0
#        BUDE Formal Charge: 0
#        ATOM Count: 27
#        Heavy ATOM Count: 17
@<TRIPOS>MOLECULE
pdb1gcz_ligA.pdb_scan_R01_S0038_C0000_L00001_S0001_C0000_G0010_E0001
27 28 1 0 0
SMALL
GASTEIGER
@<TRIPOS>ATOM
       1 C3         3.2536    2.7766    3.4823 C.3       1 YZ9900      0.0513 
       2 C11        1.9860    2.6727    2.6834 C.3       1 YZ9900      0.2089 
       3 O1         2.3580   -0.7201    2.4470 O.2       1 YZ9900     -0.2447 
       4 O2         2.0127    1.4305    1.8730 O.3       1 YZ9900     -0.4453 
       5 C6        -2.1752   -2.0082    4.7577 C.ar      1 YZ9900      0.0063 
       6 C5        -0.2498   -1.0223    3.4613 C.ar      1 YZ9900      0.0160 
       7 C4        -4.0373   -0.4220    3.1309 C.ar      1 YZ9900      0.0796 
       8 O3        -2.1275    0.4534    1.9582 O.2       1 YZ9900     -0.4208 
       9 C2        -1.7151   -1.1476    3.7328 C.ar      1 YZ9900      0.0353 
      10 C1        -2.6365   -0.3845    2.9517 C.ar      1 YZ9900      0.1519 
      11 C7        -0.8432    0.6338    1.7490 C.ar      1 YZ9900      0.3521 
      12 C12        1.6048    0.1896    2.2762 C.2       1 YZ9900      0.3476 
      13 O4        -5.7628   -1.4191    4.4465 O.3       1 YZ9900     -0.2865 
      14 O5        -0.5141    1.3930    0.9281 O.2       1 YZ9900     -0.2442 
      15 C10       -3.5810   -2.0806    4.9810 C.ar      1 YZ9900      0.0422 
      16 C9         0.1569   -0.1021    2.5335 C.ar      1 YZ9900      0.1515 
      17 C8        -4.4501   -1.3048    4.1809 C.ar      1 YZ9900      0.1988 
      18 H31        3.3519    1.9012    4.1244 H         1 YZ9900      0.0000 
      19 H32        4.1063    2.8277    2.8052 H         1 YZ9900      0.0000 
      20 H33        3.2231    3.6764    4.0967 H         1 YZ9900      0.0000 
      21 H112       1.9011    3.5357    2.0229 H         1 YZ9900      0.0000 
      22 H113       1.1313    2.6472    3.3595 H         1 YZ9900      0.0000 
      23 H6        -1.4849   -2.5901    5.3502 H         1 YZ9900      0.0000 
      24 H5         0.4667   -1.6400    3.9823 H         1 YZ9900      0.0000 
      25 H4        -4.7279    0.1571    2.5358 H         1 YZ9900      0.0000 
      26 HO4       -5.9587   -0.9923    5.2838 H         1 YZ9900      0.0000 
      27 H10       -3.9781   -2.7219    5.7540 H         1 YZ9900      0.0000 
@<TRIPOS>BOND
       1       13       17 1        
       2        7       17 ar       
       3        7       10 ar       
       4        8       10 ar       
       5        8       11 ar       
       6       14       11 2        
       7       17       15 ar       
       8       10        9 ar       
       9       11       16 ar       
      10        2        4 1        
      11        2        1 1        
      12       15        5 ar       
      13        9        5 ar       
      14        9        6 ar       
      15       16        6 ar       
      16       16       12 1        
      17        4       12 1        
      18       12        3 2        
      19       18        1 1        
      20       19        1 1        
      21       20        1 1        
      22       21        2 1        
      23       22        2 1        
      24       23        5 1        
      25       24        6 1        
      26       25        7 1        
      27       26       13 1        
      28       27       15 1        
@<TRIPOS>SUBSTRUCTURE
 1 YZ9900 10 RESIDUE 4 A YZ9900 0 ROOT

