#        scan_R01_S0038_C0000_L00001_S0001_C0000_G0010_E0001.mol2
#        Mon Jun 19 14:13:42 2017
#        Descriptor:     22    13    13     1     3     5
#        Energy - RMSD - RMSD MassCentre:     -25.4424    999.9999    999.9999
#        Receptor:       1  Surface Point:    38  Conformer:     0
#        Ligand:         1  Surface Point:     1  Conformer:     0
#        BUDE Formal Charge: 0
#        ATOM Count: 27
#        Heavy ATOM Count: 17
@<TRIPOS>MOLECULE
pdb1gcz_ligA.pdb_scan_R01_S0038_C0000_L00001_S0001_C0000_G0010_E0001
27 28 1 0 0
SMALL
GASTEIGER
@<TRIPOS>ATOM
       1 C3        -1.5946   -3.8430    4.4923 C.3       1 YZ9900      0.0513 
       2 C11       -1.0901   -3.0033    3.3538 C.3       1 YZ9900      0.2089 
       3 O1        -3.8170   -0.9514    3.5976 O.2       1 YZ9900     -0.2447 
       4 O2        -2.2276   -2.2879    2.7251 O.3       1 YZ9900     -0.4453 
       5 C6        -1.1756    3.4930    4.5026 C.ar      1 YZ9900      0.0063 
       6 C5        -2.0753    1.2521    3.7752 C.ar      1 YZ9900      0.0160 
       7 C4         0.6755    3.4510    2.2218 C.ar      1 YZ9900      0.0796 
       8 O3        -0.2574    1.3170    1.6179 O.2       1 YZ9900     -0.4208 
       9 C2        -1.1510    2.4129    3.5885 C.ar      1 YZ9900      0.0353 
      10 C1        -0.2437    2.4109    2.4847 C.ar      1 YZ9900      0.1519 
      11 C7        -1.0088    0.2553    1.8014 C.ar      1 YZ9900      0.3521 
      12 C12       -2.7363   -1.0780    3.1075 C.2       1 YZ9900      0.3476 
      13 O4         1.4451    5.5619    3.0306 O.3       1 YZ9900     -0.2865 
      14 O5        -0.9141   -0.6305    1.0498 O.2       1 YZ9900     -0.2442 
      15 C10       -0.2655    4.5677    4.2833 C.ar      1 YZ9900      0.0422 
      16 C9        -1.9460    0.1835    2.9301 C.ar      1 YZ9900      0.1515 
      17 C8         0.6120    4.5172    3.1766 C.ar      1 YZ9900      0.1988 
      18 H31       -2.0967   -3.2055    5.2201 H         1 YZ9900      0.0000 
      19 H32       -2.2978   -4.5844    4.1128 H         1 YZ9900      0.0000 
      20 H33       -0.7557   -4.3491    4.9700 H         1 YZ9900      0.0000 
      21 H112      -0.6108   -3.6445    2.6140 H         1 YZ9900      0.0000 
      22 H113      -0.3677   -2.2784    3.7290 H         1 YZ9900      0.0000 
      23 H6        -1.8605    3.5027    5.3374 H         1 YZ9900      0.0000 
      24 H5        -2.8231    1.2570    4.5544 H         1 YZ9900      0.0000 
      25 H4         1.3578    3.4432    1.3846 H         1 YZ9900      0.0000 
      26 HO4        2.1163    5.5348    3.7164 H         1 YZ9900      0.0000 
      27 H10       -0.2465    5.4123    4.9563 H         1 YZ9900      0.0000 
@<TRIPOS>BOND
       1       13       17 1        
       2        7       17 ar       
       3        7       10 ar       
       4        8       10 ar       
       5        8       11 ar       
       6       14       11 2        
       7       17       15 ar       
       8       10        9 ar       
       9       11       16 ar       
      10        2        4 1        
      11        2        1 1        
      12       15        5 ar       
      13        9        5 ar       
      14        9        6 ar       
      15       16        6 ar       
      16       16       12 1        
      17        4       12 1        
      18       12        3 2        
      19       18        1 1        
      20       19        1 1        
      21       20        1 1        
      22       21        2 1        
      23       22        2 1        
      24       23        5 1        
      25       24        6 1        
      26       25        7 1        
      27       26       13 1        
      28       27       15 1        
@<TRIPOS>SUBSTRUCTURE
 1 YZ9900 10 RESIDUE 4 A YZ9900 0 ROOT

