#        scan_R01_S0038_C0000_L00001_S0001_C0002_G0010_E0001.mol2
#        Mon Jun 19 14:41:56 2017
#        Descriptor:      6    36    34     1     1     5
#        Energy - RMSD - RMSD MassCentre:     -31.6128    999.9999    999.9999
#        Receptor:       1  Surface Point:    38  Conformer:     0
#        Ligand:         1  Surface Point:     1  Conformer:     2
#        BUDE Formal Charge: 0
#        ATOM Count: 27
#        Heavy ATOM Count: 17
@<TRIPOS>MOLECULE
pdb1gcz_ligA.pdb_scan_R01_S0038_C0000_L00001_S0001_C0002_G0010_E0001
27 28 1 0 0
SMALL
GASTEIGER
@<TRIPOS>ATOM
       1 C3        -8.1454    0.8227    3.5153 C.3       1 YZ9900      0.0513 
       2 C11       -7.3852   -0.4084    4.0002 C.3       1 YZ9900      0.2089 
       3 O1        -5.5897   -2.2370    4.5869 O.2       1 YZ9900     -0.2447 
       4 O2        -6.0030   -0.2799    3.6567 O.3       1 YZ9900     -0.4453 
       5 C6        -0.5443   -3.0746    4.0097 C.ar      1 YZ9900      0.0063 
       6 C5        -2.8794   -2.1720    4.0103 C.ar      1 YZ9900      0.0160 
       7 C4         0.3730   -0.8178    2.6579 C.ar      1 YZ9900      0.0796 
       8 O3        -1.8556    0.0995    2.6295 O.2       1 YZ9900     -0.4208 
       9 C2        -1.4445   -2.0607    3.6653 C.ar      1 YZ9900      0.0353 
      10 C1        -0.9836   -0.9267    2.9860 C.ar      1 YZ9900      0.1519 
      11 C7        -3.2053   -0.0099    2.9565 C.ar      1 YZ9900      0.3521 
      12 C12       -5.1677   -1.2808    4.0074 C.2       1 YZ9900      0.3476 
      13 O4         2.5964   -1.6778    2.6575 O.3       1 YZ9900     -0.2865 
      14 O5        -3.9518    0.8999    2.6351 O.2       1 YZ9900     -0.2442 
      15 C10        0.8114   -2.9606    3.6791 C.ar      1 YZ9900      0.0422 
      16 C9        -3.7284   -1.1938    3.6741 C.ar      1 YZ9900      0.1515 
      17 C8         1.2785   -1.8291    2.9999 C.ar      1 YZ9900      0.1988 
      18 H31       -8.0568    0.9001    2.4335 H         1 YZ9900      0.0000 
      19 H32       -9.1946    0.7310    3.7883 H         1 YZ9900      0.0000 
      20 H33       -7.7259    1.7131    3.9788 H         1 YZ9900      0.0000 
      21 H112      -7.7947   -1.2982    3.5265 H         1 YZ9900      0.0000 
      22 H113      -7.4834   -0.4940    5.0803 H         1 YZ9900      0.0000 
      23 H6        -0.8926   -3.9523    4.5337 H         1 YZ9900      0.0000 
      24 H5        -3.2250   -3.0508    4.5344 H         1 YZ9900      0.0000 
      25 H4         0.7239    0.0590    2.1338 H         1 YZ9900      0.0000 
      26 HO4        2.7375   -0.8461    2.1785 H         1 YZ9900      0.0000 
      27 H10        1.4856   -3.7574    3.9564 H         1 YZ9900      0.0000 
@<TRIPOS>BOND
       1       13       17 1        
       2        7       17 ar       
       3        7       10 ar       
       4        8       10 ar       
       5        8       11 ar       
       6       14       11 2        
       7       17       15 ar       
       8       10        9 ar       
       9       11       16 ar       
      10        2        4 1        
      11        2        1 1        
      12       15        5 ar       
      13        9        5 ar       
      14        9        6 ar       
      15       16        6 ar       
      16       16       12 1        
      17        4       12 1        
      18       12        3 2        
      19       18        1 1        
      20       19        1 1        
      21       20        1 1        
      22       21        2 1        
      23       22        2 1        
      24       23        5 1        
      25       24        6 1        
      26       25        7 1        
      27       26       13 1        
      28       27       15 1        
@<TRIPOS>SUBSTRUCTURE
 1 YZ9900 10 RESIDUE 4 A YZ9900 0 ROOT

