#        scan_R01_S0038_C0000_L00001_S0001_C0002_G0010_E0001.mol2
#        Mon Jun 19 14:13:43 2017
#        Descriptor:      7    35    34     1     1     5
#        Energy - RMSD - RMSD MassCentre:     -29.7689    999.9999    999.9999
#        Receptor:       1  Surface Point:    38  Conformer:     0
#        Ligand:         1  Surface Point:     1  Conformer:     2
#        BUDE Formal Charge: 0
#        ATOM Count: 27
#        Heavy ATOM Count: 17
@<TRIPOS>MOLECULE
pdb1gcz_ligA.pdb_scan_R01_S0038_C0000_L00001_S0001_C0002_G0010_E0001
27 28 1 0 0
SMALL
GASTEIGER
@<TRIPOS>ATOM
       1 C3        -8.0054    0.6883    4.6489 C.3       1 YZ9900      0.0513 
       2 C11       -7.2330   -0.6223    4.7687 C.3       1 YZ9900      0.2089 
       3 O1        -5.4366   -2.5417    4.7472 O.2       1 YZ9900     -0.2447 
       4 O2        -5.8898   -0.4257    4.3191 O.3       1 YZ9900     -0.4453 
       5 C6        -0.4997   -3.2483    3.4749 C.ar      1 YZ9900      0.0063 
       6 C5        -2.7979   -2.3602    3.9187 C.ar      1 YZ9900      0.0160 
       7 C4         0.3356   -0.7514    2.5645 C.ar      1 YZ9900      0.0796 
       8 O3        -1.8592    0.1573    2.9722 O.2       1 YZ9900     -0.4208 
       9 C2        -1.4029   -2.1802    3.4583 C.ar      1 YZ9900      0.0353 
      10 C1        -0.9832   -0.9255    3.0008 C.ar      1 YZ9900      0.1519 
      11 C7        -3.1712   -0.0171    3.4066 C.ar      1 YZ9900      0.3521 
      12 C12       -5.0502   -1.4824    4.3515 C.2       1 YZ9900      0.3476 
      13 O4         2.5239   -1.5977    2.1422 O.3       1 YZ9900     -0.2865 
      14 O5        -3.9219    0.9440    3.3733 O.2       1 YZ9900     -0.2442 
      15 C10        0.8180   -3.0687    3.0375 C.ar      1 YZ9900      0.0422 
      16 C9        -3.6503   -1.3288    3.8967 C.ar      1 YZ9900      0.1515 
      17 C8         1.2439   -1.8165    2.5789 C.ar      1 YZ9900      0.1988 
      18 H31       -8.0248    1.0033    3.6076 H         1 YZ9900      0.0000 
      19 H32       -9.0235    0.5421    5.0033 H         1 YZ9900      0.0000 
      20 H33       -7.5175    1.4523    5.2505 H         1 YZ9900      0.0000 
      21 H112      -7.7119   -1.3835    4.1563 H         1 YZ9900      0.0000 
      22 H113      -7.2235   -0.9448    5.8076 H         1 YZ9900      0.0000 
      23 H6        -0.8164   -4.2192    3.8265 H         1 YZ9900      0.0000 
      24 H5        -3.1119   -3.3321    4.2697 H         1 YZ9900      0.0000 
      25 H4         0.6548    0.2186    2.2125 H         1 YZ9900      0.0000 
      26 HO4        2.6378   -0.6811    1.8459 H         1 YZ9900      0.0000 
      27 H10        1.4954   -3.9095    3.0605 H         1 YZ9900      0.0000 
@<TRIPOS>BOND
       1       13       17 1        
       2        7       17 ar       
       3        7       10 ar       
       4        8       10 ar       
       5        8       11 ar       
       6       14       11 2        
       7       17       15 ar       
       8       10        9 ar       
       9       11       16 ar       
      10        2        4 1        
      11        2        1 1        
      12       15        5 ar       
      13        9        5 ar       
      14        9        6 ar       
      15       16        6 ar       
      16       16       12 1        
      17        4       12 1        
      18       12        3 2        
      19       18        1 1        
      20       19        1 1        
      21       20        1 1        
      22       21        2 1        
      23       22        2 1        
      24       23        5 1        
      25       24        6 1        
      26       25        7 1        
      27       26       13 1        
      28       27       15 1        
@<TRIPOS>SUBSTRUCTURE
 1 YZ9900 10 RESIDUE 4 A YZ9900 0 ROOT

