#        scan_R01_S0038_C0000_L00001_S0001_C0003_G0010_E0001.mol2
#        Mon Jun 19 14:41:56 2017
#        Descriptor:      7    35    33     1     1     5
#        Energy - RMSD - RMSD MassCentre:     -30.0932    999.9999    999.9999
#        Receptor:       1  Surface Point:    38  Conformer:     0
#        Ligand:         1  Surface Point:     1  Conformer:     3
#        BUDE Formal Charge: 0
#        ATOM Count: 27
#        Heavy ATOM Count: 17
@<TRIPOS>MOLECULE
pdb1gcz_ligA.pdb_scan_R01_S0038_C0000_L00001_S0001_C0003_G0010_E0001
27 28 1 0 0
SMALL
GASTEIGER
@<TRIPOS>ATOM
       1 C3        -7.9231   -0.4662    3.8980 C.3       1 YZ9900      0.0513 
       2 C11       -7.0727    0.4543    4.7687 C.3       1 YZ9900      0.2089 
       3 O1        -5.6369   -1.7479    4.7472 O.2       1 YZ9900     -0.2447 
       4 O2        -5.7158    0.4147    4.3191 O.3       1 YZ9900     -0.4453 
       5 C6        -0.8977   -3.3011    3.4749 C.ar      1 YZ9900      0.0063 
       6 C5        -3.0068   -2.0273    3.9187 C.ar      1 YZ9900      0.0160 
       7 C4         0.3585   -0.9871    2.5645 C.ar      1 YZ9900      0.0796 
       8 O3        -1.6452    0.2889    2.9722 O.2       1 YZ9900     -0.4208 
       9 C2        -1.6017   -2.0923    3.4583 C.ar      1 YZ9900      0.0353 
      10 C1        -0.9705   -0.9295    3.0008 C.ar      1 YZ9900      0.1519 
      11 C7        -2.9675    0.3450    3.4066 C.ar      1 YZ9900      0.3521 
      12 C12       -5.0724   -0.7718    4.3515 C.2       1 YZ9900      0.3476 
      13 O4         2.3665   -2.2005    2.1422 O.3       1 YZ9900     -0.2865 
      14 O5        -3.5400    1.4218    3.3733 O.2       1 YZ9900     -0.2442 
      15 C10        0.4312   -3.3530    3.0375 C.ar      1 YZ9900      0.0422 
      16 C9        -3.6671   -0.8636    3.8967 C.ar      1 YZ9900      0.1515 
      17 C8         1.0680   -2.1938    2.5789 C.ar      1 YZ9900      0.1988 
      18 H31       -7.5540   -1.4863    3.9816 H         1 YZ9900      0.0000 
      19 H32       -8.9580   -0.4257    4.2315 H         1 YZ9900      0.0000 
      20 H33       -7.8626   -0.1417    2.8613 H         1 YZ9900      0.0000 
      21 H112      -7.1211    0.1224    5.8036 H         1 YZ9900      0.0000 
      22 H113      -7.4485    1.4727    4.6957 H         1 YZ9900      0.0000 
      23 H6        -1.3782   -4.2021    3.8265 H         1 YZ9900      0.0000 
      24 H5        -3.4848   -2.9299    4.2697 H         1 YZ9900      0.0000 
      25 H4         0.8413   -0.0873    2.2125 H         1 YZ9900      0.0000 
      26 HO4        2.6379   -1.3176    1.8459 H         1 YZ9900      0.0000 
      27 H10        0.9523   -4.2986    3.0605 H         1 YZ9900      0.0000 
@<TRIPOS>BOND
       1       13       17 1        
       2        7       17 ar       
       3        7       10 ar       
       4        8       10 ar       
       5        8       11 ar       
       6       14       11 2        
       7       17       15 ar       
       8       10        9 ar       
       9       11       16 ar       
      10        2        4 1        
      11        2        1 1        
      12       15        5 ar       
      13        9        5 ar       
      14        9        6 ar       
      15       16        6 ar       
      16       16       12 1        
      17        4       12 1        
      18       12        3 2        
      19       18        1 1        
      20       19        1 1        
      21       20        1 1        
      22       21        2 1        
      23       22        2 1        
      24       23        5 1        
      25       24        6 1        
      26       25        7 1        
      27       26       13 1        
      28       27       15 1        
@<TRIPOS>SUBSTRUCTURE
 1 YZ9900 10 RESIDUE 4 A YZ9900 0 ROOT

