#        scan_R01_S0039_C0000_L00001_S0001_C0002_G0010_E0001.mol2
#        Mon Jun 19 14:13:44 2017
#        Descriptor:     29    20    24     1     1     5
#        Energy - RMSD - RMSD MassCentre:     -40.3929    999.9999    999.9999
#        Receptor:       1  Surface Point:    39  Conformer:     0
#        Ligand:         1  Surface Point:     1  Conformer:     2
#        BUDE Formal Charge: 0
#        ATOM Count: 27
#        Heavy ATOM Count: 17
@<TRIPOS>MOLECULE
pdb1gcz_ligA.pdb_scan_R01_S0039_C0000_L00001_S0001_C0002_G0010_E0001
27 28 1 0 0
SMALL
GASTEIGER
@<TRIPOS>ATOM
       1 C3        -3.7380   -7.4717    5.2947 C.3       1 YZ9900      0.0513 
       2 C11       -2.4478   -7.1328    4.5536 C.3       1 YZ9900      0.2089 
       3 O1        -0.4375   -5.9692    3.3222 O.2       1 YZ9900     -0.2447 
       4 O2        -2.3764   -5.7200    4.3442 O.3       1 YZ9900     -0.4453 
       5 C6         1.0789   -1.2520    1.9296 C.ar      1 YZ9900      0.0063 
       6 C5        -0.1177   -3.2619    2.8217 C.ar      1 YZ9900      0.0160 
       7 C4        -0.9604    0.4165    2.8346 C.ar      1 YZ9900      0.0796 
       8 O3        -2.1562   -1.4829    3.7129 O.2       1 YZ9900     -0.4208 
       9 C2        -0.0223   -1.8027    2.5937 C.ar      1 YZ9900      0.0353 
      10 C1        -1.0471   -0.9644    3.0485 C.ar      1 YZ9900      0.1519 
      11 C7        -2.2414   -2.8570    3.9251 C.ar      1 YZ9900      0.3521 
      12 C12       -1.2968   -5.2293    3.6991 C.2       1 YZ9900      0.3476 
      13 O4         0.1794    2.3300    1.9850 O.3       1 YZ9900     -0.2865 
      14 O5        -3.2210   -3.2905    4.5090 O.2       1 YZ9900     -0.2442 
      15 C10        1.1605    0.1296    1.7184 C.ar      1 YZ9900      0.0422 
      16 C9        -1.1775   -3.7739    3.4585 C.ar      1 YZ9900      0.1515 
      17 C8         0.1391    0.9733    2.1708 C.ar      1 YZ9900      0.1988 
      18 H31       -4.5917   -7.1606    4.6960 H         1 YZ9900      0.0000 
      19 H32       -3.7859   -8.5450    5.4657 H         1 YZ9900      0.0000 
      20 H33       -3.7546   -6.9506    6.2495 H         1 YZ9900      0.0000 
      21 H112      -2.4363   -7.6423    3.5923 H         1 YZ9900      0.0000 
      22 H113      -1.5936   -7.4547    5.1455 H         1 YZ9900      0.0000 
      23 H6         1.8732   -1.8925    1.5760 H         1 YZ9900      0.0000 
      24 H5         0.6781   -3.9002    2.4670 H         1 YZ9900      0.0000 
      25 H4        -1.7535    1.0593    3.1874 H         1 YZ9900      0.0000 
      26 HO4       -0.6155    2.7537    2.3448 H         1 YZ9900      0.0000 
      27 H10        2.0212    0.5295    1.2031 H         1 YZ9900      0.0000 
@<TRIPOS>BOND
       1       13       17 1        
       2        7       17 ar       
       3        7       10 ar       
       4        8       10 ar       
       5        8       11 ar       
       6       14       11 2        
       7       17       15 ar       
       8       10        9 ar       
       9       11       16 ar       
      10        2        4 1        
      11        2        1 1        
      12       15        5 ar       
      13        9        5 ar       
      14        9        6 ar       
      15       16        6 ar       
      16       16       12 1        
      17        4       12 1        
      18       12        3 2        
      19       18        1 1        
      20       19        1 1        
      21       20        1 1        
      22       21        2 1        
      23       22        2 1        
      24       23        5 1        
      25       24        6 1        
      26       25        7 1        
      27       26       13 1        
      28       27       15 1        
@<TRIPOS>SUBSTRUCTURE
 1 YZ9900 10 RESIDUE 4 A YZ9900 0 ROOT

