#        scan_R01_S0039_C0000_L00001_S0001_C0003_G0010_E0001.mol2
#        Mon Jun 19 14:41:58 2017
#        Descriptor:     29    21    24     1     1     5
#        Energy - RMSD - RMSD MassCentre:     -40.0447    999.9999    999.9999
#        Receptor:       1  Surface Point:    39  Conformer:     0
#        Ligand:         1  Surface Point:     1  Conformer:     3
#        BUDE Formal Charge: 0
#        ATOM Count: 27
#        Heavy ATOM Count: 17
@<TRIPOS>MOLECULE
pdb1gcz_ligA.pdb_scan_R01_S0039_C0000_L00001_S0001_C0003_G0010_E0001
27 28 1 0 0
SMALL
GASTEIGER
@<TRIPOS>ATOM
       1 C3        -2.3823   -7.7282    4.3573 C.3       1 YZ9900      0.0513 
       2 C11       -2.2671   -6.8198    5.5780 C.3       1 YZ9900      0.2089 
       3 O1        -0.3789   -5.8678    4.0157 O.2       1 YZ9900     -0.2447 
       4 O2        -2.2234   -5.4550    5.1531 O.3       1 YZ9900     -0.4453 
       5 C6         0.9797   -1.4237    1.8033 C.ar      1 YZ9900      0.0063 
       6 C5        -0.1217   -3.2687    3.0879 C.ar      1 YZ9900      0.0160 
       7 C4        -0.9842    0.3752    2.6207 C.ar      1 YZ9900      0.0796 
       8 O3        -2.0868   -1.3626    3.8751 O.2       1 YZ9900     -0.4208 
       9 C2        -0.0560   -1.8611    2.6357 C.ar      1 YZ9900      0.0353 
      10 C1        -1.0429   -0.9572    3.0465 C.ar      1 YZ9900      0.1519 
      11 C7        -2.1441   -2.6886    4.2981 C.ar      1 YZ9900      0.3521 
      12 C12       -1.2071   -5.0740    4.3502 C.2       1 YZ9900      0.3476 
      13 O4         0.0649    2.1317    1.3972 O.3       1 YZ9900     -0.2865 
      14 O5        -3.0665   -3.0228    5.0234 O.2       1 YZ9900     -0.2442 
      15 C10        1.0336   -0.0902    1.3805 C.ar      1 YZ9900      0.0422 
      16 C9        -1.1187   -3.6722    3.8841 C.ar      1 YZ9900      0.1515 
      17 C8         0.0498    0.8186    1.7877 C.ar      1 YZ9900      0.1988 
      18 H31       -1.5140   -7.5861    3.7171 H         1 YZ9900      0.0000 
      19 H32       -2.4290   -8.7657    4.6813 H         1 YZ9900      0.0000 
      20 H33       -3.2858   -7.4792    3.8047 H         1 YZ9900      0.0000 
      21 H112      -1.3566   -7.0583    6.1237 H         1 YZ9900      0.0000 
      22 H113      -3.1286   -6.9700    6.2252 H         1 YZ9900      0.0000 
      23 H6         1.7445   -2.1154    1.4823 H         1 YZ9900      0.0000 
      24 H5         0.6445   -3.9583    2.7655 H         1 YZ9900      0.0000 
      25 H4        -1.7479    1.0689    2.9403 H         1 YZ9900      0.0000 
      26 HO4       -0.6986    2.6099    1.7569 H         1 YZ9900      0.0000 
      27 H10        1.8437    0.2220    0.7380 H         1 YZ9900      0.0000 
@<TRIPOS>BOND
       1       13       17 1        
       2        7       17 ar       
       3        7       10 ar       
       4        8       10 ar       
       5        8       11 ar       
       6       14       11 2        
       7       17       15 ar       
       8       10        9 ar       
       9       11       16 ar       
      10        2        4 1        
      11        2        1 1        
      12       15        5 ar       
      13        9        5 ar       
      14        9        6 ar       
      15       16        6 ar       
      16       16       12 1        
      17        4       12 1        
      18       12        3 2        
      19       18        1 1        
      20       19        1 1        
      21       20        1 1        
      22       21        2 1        
      23       22        2 1        
      24       23        5 1        
      25       24        6 1        
      26       25        7 1        
      27       26       13 1        
      28       27       15 1        
@<TRIPOS>SUBSTRUCTURE
 1 YZ9900 10 RESIDUE 4 A YZ9900 0 ROOT

