#        scan_R01_S0040_C0000_L00001_S0001_C0000_G0010_E0001.mol2
#        Mon Jun 19 14:41:58 2017
#        Descriptor:     14    23     7     3     1     4
#        Energy - RMSD - RMSD MassCentre:     -29.9002    999.9999    999.9999
#        Receptor:       1  Surface Point:    40  Conformer:     0
#        Ligand:         1  Surface Point:     1  Conformer:     0
#        BUDE Formal Charge: 0
#        ATOM Count: 27
#        Heavy ATOM Count: 17
@<TRIPOS>MOLECULE
pdb1gcz_ligA.pdb_scan_R01_S0040_C0000_L00001_S0001_C0000_G0010_E0001
27 28 1 0 0
SMALL
GASTEIGER
@<TRIPOS>ATOM
       1 C3        -2.6237   -4.5661    1.5672 C.3       1 YZ9900      0.0513 
       2 C11       -2.4257   -3.0887    1.7516 C.3       1 YZ9900      0.2089 
       3 O1         0.0577   -3.6593    4.0348 O.2       1 YZ9900     -0.2447 
       4 O2        -1.8057   -2.8343    3.0751 O.3       1 YZ9900     -0.4453 
       5 C6         3.8643   -1.1181    1.4657 C.ar      1 YZ9900      0.0063 
       6 C5         1.7503   -1.9881    2.5306 C.ar      1 YZ9900      0.0160 
       7 C4         2.5479    1.4757    1.0537 C.ar      1 YZ9900      0.0796 
       8 O3         0.5853    0.5435    2.0872 O.2       1 YZ9900     -0.4208 
       9 C2         2.5292   -0.8915    1.8768 C.ar      1 YZ9900      0.0353 
      10 C1         1.9063    0.3773    1.6682 C.ar      1 YZ9900      0.1519 
      11 C7        -0.1411   -0.4244    2.5982 C.ar      1 YZ9900      0.3521 
      12 C12       -0.4681   -2.8296    3.3572 C.2       1 YZ9900      0.3476 
      13 O4         4.6042    2.1642    0.0536 O.3       1 YZ9900     -0.2865 
      14 O5        -1.2518   -0.2016    2.8726 O.2       1 YZ9900     -0.2442 
      15 C10        4.5561   -0.0418    0.8377 C.ar      1 YZ9900      0.0422 
      16 C9         0.4318   -1.7590    2.8169 C.ar      1 YZ9900      0.1515 
      17 C8         3.8945    1.1936    0.6545 C.ar      1 YZ9900      0.1988 
      18 H31       -1.6627   -5.0745    1.6452 H         1 YZ9900      0.0000 
      19 H32       -3.2966   -4.9412    2.3383 H         1 YZ9900      0.0000 
      20 H33       -3.0561   -4.7547    0.5846 H         1 YZ9900      0.0000 
      21 H112      -3.3902   -2.5836    1.6992 H         1 YZ9900      0.0000 
      22 H113      -1.7732   -2.7085    0.9656 H         1 YZ9900      0.0000 
      23 H6         4.3425   -2.0735    1.6226 H         1 YZ9900      0.0000 
      24 H5         2.2148   -2.9332    2.7699 H         1 YZ9900      0.0000 
      25 H4         2.0709    2.4324    0.9003 H         1 YZ9900      0.0000 
      26 HO4        4.7170    1.9504   -0.8754 H         1 YZ9900      0.0000 
      27 H10        5.5758   -0.1691    0.5051 H         1 YZ9900      0.0000 
@<TRIPOS>BOND
       1       13       17 1        
       2        7       17 ar       
       3        7       10 ar       
       4        8       10 ar       
       5        8       11 ar       
       6       14       11 2        
       7       17       15 ar       
       8       10        9 ar       
       9       11       16 ar       
      10        2        4 1        
      11        2        1 1        
      12       15        5 ar       
      13        9        5 ar       
      14        9        6 ar       
      15       16        6 ar       
      16       16       12 1        
      17        4       12 1        
      18       12        3 2        
      19       18        1 1        
      20       19        1 1        
      21       20        1 1        
      22       21        2 1        
      23       22        2 1        
      24       23        5 1        
      25       24        6 1        
      26       25        7 1        
      27       26       13 1        
      28       27       15 1        
@<TRIPOS>SUBSTRUCTURE
 1 YZ9900 10 RESIDUE 4 A YZ9900 0 ROOT

