#        scan_R01_S0040_C0000_L00001_S0001_C0000_G0010_E0001.mol2
#        Mon Jun 19 14:13:45 2017
#        Descriptor:     22    25    29     3     3     4
#        Energy - RMSD - RMSD MassCentre:     -29.3618    999.9999    999.9999
#        Receptor:       1  Surface Point:    40  Conformer:     0
#        Ligand:         1  Surface Point:     1  Conformer:     0
#        BUDE Formal Charge: 0
#        ATOM Count: 27
#        Heavy ATOM Count: 17
@<TRIPOS>MOLECULE
pdb1gcz_ligA.pdb_scan_R01_S0040_C0000_L00001_S0001_C0000_G0010_E0001
27 28 1 0 0
SMALL
GASTEIGER
@<TRIPOS>ATOM
       1 C3         4.4804    1.8714   -1.6281 C.3       1 YZ9900      0.0513 
       2 C11        3.8927    0.7779   -0.7826 C.3       1 YZ9900      0.2089 
       3 O1         3.9755    2.8018    1.9748 O.2       1 YZ9900     -0.2447 
       4 O2         4.2468    1.0081    0.6395 O.3       1 YZ9900     -0.4453 
       5 C6        -1.1704    2.6710    3.0004 C.ar      1 YZ9900      0.0063 
       6 C5         1.2409    2.2727    2.3783 C.ar      1 YZ9900      0.0160 
       7 C4        -1.5930   -0.2350    3.0825 C.ar      1 YZ9900      0.0796 
       8 O3         0.7234   -0.4992    2.4880 O.2       1 YZ9900     -0.4208 
       9 C2        -0.1207    1.7619    2.7271 C.ar      1 YZ9900      0.0353 
      10 C1        -0.3457    0.3518    2.7727 C.ar      1 YZ9900      0.1519 
      11 C7         1.9078   -0.0747    2.1101 C.ar      1 YZ9900      0.3521 
      12 C12        3.5546    1.7757    1.5342 C.2       1 YZ9900      0.3476 
      13 O4        -3.8535    0.2849    3.6500 O.3       1 YZ9900     -0.2865 
      14 O5         2.7237   -0.8640    1.8456 O.2       1 YZ9900     -0.2442 
      15 C10       -2.4505    2.1299    3.3163 C.ar      1 YZ9900      0.0422 
      16 C9         2.1978    1.3623    2.0199 C.ar      1 YZ9900      0.1515 
      17 C8        -2.6207    0.7272    3.3477 C.ar      1 YZ9900      0.1988 
      18 H31        4.1025    2.8362   -1.2895 H         1 YZ9900      0.0000 
      19 H32        5.5667    1.8553   -1.5387 H         1 YZ9900      0.0000 
      20 H33        4.1992    1.7161   -2.6696 H         1 YZ9900      0.0000 
      21 H112       4.2908   -0.1842   -1.1049 H         1 YZ9900      0.0000 
      22 H113       2.8081    0.7774   -0.8914 H         1 YZ9900      0.0000 
      23 H6        -1.0070    3.7380    2.9706 H         1 YZ9900      0.0000 
      24 H5         1.4627    3.3292    2.4082 H         1 YZ9900      0.0000 
      25 H4        -1.7554   -1.3022    3.1160 H         1 YZ9900      0.0000 
      26 HO4       -4.4461    0.4606    2.9155 H         1 YZ9900      0.0000 
      27 H10       -3.2821    2.7851    3.5296 H         1 YZ9900      0.0000 
@<TRIPOS>BOND
       1       13       17 1        
       2        7       17 ar       
       3        7       10 ar       
       4        8       10 ar       
       5        8       11 ar       
       6       14       11 2        
       7       17       15 ar       
       8       10        9 ar       
       9       11       16 ar       
      10        2        4 1        
      11        2        1 1        
      12       15        5 ar       
      13        9        5 ar       
      14        9        6 ar       
      15       16        6 ar       
      16       16       12 1        
      17        4       12 1        
      18       12        3 2        
      19       18        1 1        
      20       19        1 1        
      21       20        1 1        
      22       21        2 1        
      23       22        2 1        
      24       23        5 1        
      25       24        6 1        
      26       25        7 1        
      27       26       13 1        
      28       27       15 1        
@<TRIPOS>SUBSTRUCTURE
 1 YZ9900 10 RESIDUE 4 A YZ9900 0 ROOT

