#        scan_R01_S0040_C0000_L00001_S0001_C0002_G0010_E0001.mol2
#        Mon Jun 19 14:41:59 2017
#        Descriptor:     27    34    19     3     1     4
#        Energy - RMSD - RMSD MassCentre:     -31.4162    999.9999    999.9999
#        Receptor:       1  Surface Point:    40  Conformer:     0
#        Ligand:         1  Surface Point:     1  Conformer:     2
#        BUDE Formal Charge: 0
#        ATOM Count: 27
#        Heavy ATOM Count: 17
@<TRIPOS>MOLECULE
pdb1gcz_ligA.pdb_scan_R01_S0040_C0000_L00001_S0001_C0002_G0010_E0001
27 28 1 0 0
SMALL
GASTEIGER
@<TRIPOS>ATOM
       1 C3         7.9725   -0.6751    4.4339 C.3       1 YZ9900      0.0513 
       2 C11        7.0891   -1.8657    4.0723 C.3       1 YZ9900      0.2089 
       3 O1         5.1511   -3.4763    3.3227 O.2       1 YZ9900     -0.2447 
       4 O2         5.8085   -1.3952    3.6438 O.3       1 YZ9900     -0.4453 
       5 C6         0.2969   -3.2138    1.6319 C.ar      1 YZ9900      0.0063 
       6 C5         2.6144   -2.7620    2.4642 C.ar      1 YZ9900      0.0160 
       7 C4        -0.2543   -0.4840    1.5574 C.ar      1 YZ9900      0.0796 
       8 O3         1.9652    0.0095    2.3572 O.2       1 YZ9900     -0.4208 
       9 C2         1.2819   -2.2983    2.0171 C.ar      1 YZ9900      0.0353 
      10 C1         1.0050   -0.9265    1.9797 C.ar      1 YZ9900      0.1519 
      11 C7         3.2178   -0.4320    2.7772 C.ar      1 YZ9900      0.3521 
      12 C12        4.8862   -2.3118    3.2805 C.2       1 YZ9900      0.3476 
      13 O4        -2.4609   -0.9148    0.7649 O.3       1 YZ9900     -0.2865 
      14 O5         4.0441    0.4042    3.1034 O.2       1 YZ9900     -0.2442 
      15 C10       -0.9607   -2.7658    1.2104 C.ar      1 YZ9900      0.0422 
      16 C9         3.5464   -1.8740    2.8297 C.ar      1 YZ9900      0.1515 
      17 C8        -1.2439   -1.3955    1.1707 C.ar      1 YZ9900      0.1988 
      18 H31        7.5123   -0.1164    5.2464 H         1 YZ9900      0.0000 
      19 H32        8.9511   -1.0325    4.7473 H         1 YZ9900      0.0000 
      20 H33        8.0826   -0.0291    3.5655 H         1 YZ9900      0.0000 
      21 H112       6.9666   -2.5053    4.9440 H         1 YZ9900      0.0000 
      22 H113       7.5542   -2.4323    3.2684 H         1 YZ9900      0.0000 
      23 H6         0.5033   -4.2736    1.6582 H         1 YZ9900      0.0000 
      24 H5         2.8181   -3.8224    2.4895 H         1 YZ9900      0.0000 
      25 H4        -0.4632    0.5754    1.5302 H         1 YZ9900      0.0000 
      26 HO4       -2.4868    0.0535    0.8168 H         1 YZ9900      0.0000 
      27 H10       -1.7036   -3.4933    0.9182 H         1 YZ9900      0.0000 
@<TRIPOS>BOND
       1       13       17 1        
       2        7       17 ar       
       3        7       10 ar       
       4        8       10 ar       
       5        8       11 ar       
       6       14       11 2        
       7       17       15 ar       
       8       10        9 ar       
       9       11       16 ar       
      10        2        4 1        
      11        2        1 1        
      12       15        5 ar       
      13        9        5 ar       
      14        9        6 ar       
      15       16        6 ar       
      16       16       12 1        
      17        4       12 1        
      18       12        3 2        
      19       18        1 1        
      20       19        1 1        
      21       20        1 1        
      22       21        2 1        
      23       22        2 1        
      24       23        5 1        
      25       24        6 1        
      26       25        7 1        
      27       26       13 1        
      28       27       15 1        
@<TRIPOS>SUBSTRUCTURE
 1 YZ9900 10 RESIDUE 4 A YZ9900 0 ROOT

