#        scan_R01_S0040_C0000_L00001_S0001_C0002_G0010_E0001.mol2
#        Mon Jun 19 14:13:46 2017
#        Descriptor:     24     3    23     3     2     6
#        Energy - RMSD - RMSD MassCentre:     -30.8461    999.9999    999.9999
#        Receptor:       1  Surface Point:    40  Conformer:     0
#        Ligand:         1  Surface Point:     1  Conformer:     2
#        BUDE Formal Charge: 0
#        ATOM Count: 27
#        Heavy ATOM Count: 17
@<TRIPOS>MOLECULE
pdb1gcz_ligA.pdb_scan_R01_S0040_C0000_L00001_S0001_C0002_G0010_E0001
27 28 1 0 0
SMALL
GASTEIGER
@<TRIPOS>ATOM
       1 C3         5.4792    4.2008   -0.1152 C.3       1 YZ9900      0.0513 
       2 C11        5.3784    2.6853    0.0326 C.3       1 YZ9900      0.2089 
       3 O1         4.7482    0.2166    0.6808 O.2       1 YZ9900     -0.2447 
       4 O2         4.3355    2.3659    0.9575 O.3       1 YZ9900     -0.4453 
       5 C6         1.4161   -2.2944    3.6945 C.ar      1 YZ9900      0.0063 
       6 C5         2.7713   -0.6024    2.4424 C.ar      1 YZ9900      0.0160 
       7 C4        -0.0644   -0.2717    4.9102 C.ar      1 YZ9900      0.0796 
       8 O3         1.2087    1.4008    3.7308 O.2       1 YZ9900     -0.4208 
       9 C2         1.6967   -0.9568    3.3964 C.ar      1 YZ9900      0.0353 
      10 C1         0.9529    0.0597    4.0073 C.ar      1 YZ9900      0.1519 
      11 C7         2.2211    1.7293    2.8322 C.ar      1 YZ9900      0.3521 
      12 C12        4.0970    1.0627    1.2174 C.2       1 YZ9900      0.3476 
      13 O4        -1.3546   -1.8834    6.1022 O.3       1 YZ9900     -0.2865 
      14 O5         2.4288    2.9097    2.6042 O.2       1 YZ9900     -0.2442 
      15 C10        0.3976   -2.6202    4.5983 C.ar      1 YZ9900      0.0422 
      16 C9         3.0281    0.6819    2.1675 C.ar      1 YZ9900      0.1515 
      17 C8        -0.3499   -1.6084    5.2124 C.ar      1 YZ9900      0.1988 
      18 H31        5.7164    4.6436    0.8500 H         1 YZ9900      0.0000 
      19 H32        6.2638    4.4434   -0.8289 H         1 YZ9900      0.0000 
      20 H33        4.5295    4.5938   -0.4718 H         1 YZ9900      0.0000 
      21 H112       6.3232    2.2926    0.4026 H         1 YZ9900      0.0000 
      22 H113       5.1536    2.2401   -0.9343 H         1 YZ9900      0.0000 
      23 H6         1.9858   -3.0839    3.2271 H         1 YZ9900      0.0000 
      24 H5         3.3395   -1.3939    1.9764 H         1 YZ9900      0.0000 
      25 H4        -0.6357    0.5160    5.3790 H         1 YZ9900      0.0000 
      26 HO4       -1.7518   -1.0658    6.4412 H         1 YZ9900      0.0000 
      27 H10        0.2010   -3.6606    4.8111 H         1 YZ9900      0.0000 
@<TRIPOS>BOND
       1       13       17 1        
       2        7       17 ar       
       3        7       10 ar       
       4        8       10 ar       
       5        8       11 ar       
       6       14       11 2        
       7       17       15 ar       
       8       10        9 ar       
       9       11       16 ar       
      10        2        4 1        
      11        2        1 1        
      12       15        5 ar       
      13        9        5 ar       
      14        9        6 ar       
      15       16        6 ar       
      16       16       12 1        
      17        4       12 1        
      18       12        3 2        
      19       18        1 1        
      20       19        1 1        
      21       20        1 1        
      22       21        2 1        
      23       22        2 1        
      24       23        5 1        
      25       24        6 1        
      26       25        7 1        
      27       26       13 1        
      28       27       15 1        
@<TRIPOS>SUBSTRUCTURE
 1 YZ9900 10 RESIDUE 4 A YZ9900 0 ROOT

