#        scan_R01_S0041_C0000_L00001_S0001_C0000_G0010_E0001.mol2
#        Mon Jun 19 14:13:47 2017
#        Descriptor:      3     3    26     2     1     5
#        Energy - RMSD - RMSD MassCentre:     -58.7861    999.9999    999.9999
#        Receptor:       1  Surface Point:    41  Conformer:     0
#        Ligand:         1  Surface Point:     1  Conformer:     0
#        BUDE Formal Charge: 0
#        ATOM Count: 27
#        Heavy ATOM Count: 17
@<TRIPOS>MOLECULE
pdb1gcz_ligA.pdb_scan_R01_S0041_C0000_L00001_S0001_C0000_G0010_E0001
27 28 1 0 0
SMALL
GASTEIGER
@<TRIPOS>ATOM
       1 C3        -4.3086   -3.6070    3.8217 C.3       1 YZ9900      0.0513 
       2 C11       -3.3873   -3.1476    2.7280 C.3       1 YZ9900      0.2089 
       3 O1        -3.1356   -0.0572    4.1745 O.2       1 YZ9900     -0.2447 
       4 O2        -3.4364   -1.6682    2.6291 O.3       1 YZ9900     -0.4453 
       5 C6         2.0692   -0.1055    4.8499 C.ar      1 YZ9900      0.0063 
       6 C5        -0.3340   -0.3172    4.1150 C.ar      1 YZ9900      0.0160 
       7 C4         2.9257   -0.7346    2.1111 C.ar      1 YZ9900      0.0796 
       8 O3         0.6003   -0.9095    1.5189 O.2       1 YZ9900     -0.4208 
       9 C2         1.1317   -0.3583    3.8203 C.ar      1 YZ9900      0.0353 
      10 C1         1.5678   -0.6620    2.4941 C.ar      1 YZ9900      0.1519 
      11 C7        -0.6886   -0.9492    1.7694 C.ar      1 YZ9900      0.3521 
      12 C12       -2.6794   -0.7816    3.3431 C.2       1 YZ9900      0.3476 
      13 O4         5.1533   -0.5196    2.9442 O.3       1 YZ9900     -0.2865 
      14 O5        -1.4171   -1.2134    0.8986 O.2       1 YZ9900     -0.2442 
      15 C10        3.4534   -0.1688    4.5161 C.ar      1 YZ9900      0.0422 
      16 C9        -1.2015   -0.6698    3.1170 C.ar      1 YZ9900      0.1515 
      17 C8         3.8325   -0.4737    3.1891 C.ar      1 YZ9900      0.1988 
      18 H31       -4.0106   -3.1489    4.7649 H         1 YZ9900      0.0000 
      19 H32       -5.3308   -3.3135    3.5825 H         1 YZ9900      0.0000 
      20 H33       -4.2536   -4.6919    3.9111 H         1 YZ9900      0.0000 
      21 H112      -3.7013   -3.5856    1.7806 H         1 YZ9900      0.0000 
      22 H113      -2.3687   -3.4630    2.9544 H         1 YZ9900      0.0000 
      23 H6         1.7469    0.1274    5.8539 H         1 YZ9900      0.0000 
      24 H5        -0.6972   -0.0181    5.0870 H         1 YZ9900      0.0000 
      25 H4         3.2480   -0.9637    1.1061 H         1 YZ9900      0.0000 
      26 HO4        5.5291   -1.3000    3.3580 H         1 YZ9900      0.0000 
      27 H10        4.2051    0.0144    5.2697 H         1 YZ9900      0.0000 
@<TRIPOS>BOND
       1       13       17 1        
       2        7       17 ar       
       3        7       10 ar       
       4        8       10 ar       
       5        8       11 ar       
       6       14       11 2        
       7       17       15 ar       
       8       10        9 ar       
       9       11       16 ar       
      10        2        4 1        
      11        2        1 1        
      12       15        5 ar       
      13        9        5 ar       
      14        9        6 ar       
      15       16        6 ar       
      16       16       12 1        
      17        4       12 1        
      18       12        3 2        
      19       18        1 1        
      20       19        1 1        
      21       20        1 1        
      22       21        2 1        
      23       22        2 1        
      24       23        5 1        
      25       24        6 1        
      26       25        7 1        
      27       26       13 1        
      28       27       15 1        
@<TRIPOS>SUBSTRUCTURE
 1 YZ9900 10 RESIDUE 4 A YZ9900 0 ROOT

