#        1GCZ_R01_S0001_C0000_L00005_S0001_C0000_G0010_E0001.mol2
#        Tue Jun  6 14:05:32 2017
#        Descriptor:      6    25    29     7    11    12
#        Energy - RMSD - RMSD MassCentre:     -72.1872    999.9999    999.9999
#        Receptor:       1  Surface Point:     1  Conformer:     0
#        Ligand:         5  Surface Point:     1  Conformer:     0
#        BUDE Formal Charge: 0
#        ATOM Count: 55
#        Heavy ATOM Count: 30
@<TRIPOS>MOLECULE
ZINC61464195_1GCZ_R01_S0001_C0000_L00005_S0001_C0000_G0010_E0001
 55 56 0 0 0
SMALL
USER_CHARGES
@<TRIPOS>ATOM
       1 C1         1.5927   -0.8512   -4.1447 C.3       1 <0>        -0.1456 
       2 C2         0.4523    0.0760   -3.7199 C.3       1 <0>        -0.0579 
       3 C3        -0.8203   -0.2982   -4.4824 C.3       1 <0>        -0.1456 
       4 C4         0.2117   -0.0692   -2.2393 C.ar      1 <0>        -0.0771 
       5 C5        -0.1379   -1.3002   -1.7147 C.ar      1 <0>        -0.0943 
       6 C6        -0.3595   -1.4370   -0.3587 C.ar      1 <0>        -0.0923 
       7 C7        -0.2303   -0.3359    0.4793 C.ar      1 <0>        -0.1041 
       8 C8         0.1216    0.8994   -0.0512 C.ar      1 <0>        -0.1315 
       9 C9         0.3467    1.0275   -1.4076 C.ar      1 <0>        -0.0969 
      10 S1        -0.5126   -0.5056    2.2103 S.3       1 <0>        -0.0341 
      11 C10       -0.2305    1.1619    2.8664 C.3       1 <0>        -0.1267 
      12 C11       -0.4421    1.1571    4.3584 C.2       1 <0>         0.4864 
      13 O1        -0.7515    0.1337    4.9215 O.2       1 <0>        -0.4815 
      14 O2        -0.2869    2.2896    5.0620 O.3       1 <0>        -0.3231 
      15 C12       -0.5033    2.2120    6.4725 C.3       1 <0>         0.0526 
      16 C13       -0.2854    3.5696    7.0895 C.2       1 <0>         0.5250 
      17 O3         0.0247    4.5108    6.3903 O.2       1 <0>        -0.5082 
      18 N1        -0.4351    3.7377    8.4184 N.am      1 <0>        -0.5981 
      19 C14       -0.8097    2.6007    9.2629 C.3       1 <0>         0.0731 
      20 C15       -0.2232    5.0572    9.0182 C.3       1 <0>         0.1010 
      21 C16       -1.5238    5.8183    9.0301 C.2       1 <0>         0.4997 
      22 O4        -2.5289    5.3085    8.5817 O.2       1 <0>        -0.5061 
      23 N2        -1.5702    7.0654    9.5392 N.am      1 <0>        -0.6702 
      24 C17       -2.7547    7.8077    9.4655 C.ar      1 <0>         0.1553 
      25 C18       -3.9834    7.1698    9.5719 C.ar      1 <0>        -0.1106 
      26 C19       -5.1505    7.9051    9.4994 C.ar      1 <0>        -0.0959 
      27 C20       -5.0967    9.2754    9.3207 C.ar      1 <0>        -0.1208 
      28 C21       -3.8753    9.9144    9.2144 C.ar      1 <0>        -0.0919 
      29 C22       -2.7034    9.1854    9.2917 C.ar      1 <0>        -0.0639 
      30 Cl1       -1.1698    9.9890    9.1654 Cl        1 <0>        -0.0632 
      31 H1         1.7667   -0.7461   -5.2156 H         1 <0>         0.0596 
      32 H2         2.4993   -0.5846   -3.6014 H         1 <0>         0.0563 
      33 H3         1.3246   -1.8835   -3.9197 H         1 <0>         0.0575 
      34 H4         0.7204    1.1084   -3.9448 H         1 <0>         0.0784 
      35 H5        -0.6463   -0.1931   -5.5533 H         1 <0>         0.0596 
      36 H6        -1.0883   -1.3305   -4.2574 H         1 <0>         0.0574 
      37 H7        -1.6327    0.3624   -4.1797 H         1 <0>         0.0563 
      38 H8        -0.2381   -2.1555   -2.3666 H         1 <0>         0.1285 
      39 H9        -0.6332   -2.3985    0.0502 H         1 <0>         0.1293 
      40 H10        0.2230    1.7573    0.5970 H         1 <0>         0.1227 
      41 H11        0.6243    1.9863   -1.8201 H         1 <0>         0.1262 
      42 H12        0.7910    1.4714    2.6453 H         1 <0>         0.1329 
      43 H13       -0.9294    1.8579    2.4026 H         1 <0>         0.1329 
      44 H14       -1.5249    1.8848    6.6658 H         1 <0>         0.1063 
      45 H15        0.1955    1.4982    6.9085 H         1 <0>         0.1054 
      46 H16        0.0908    2.0955    9.6125 H         1 <0>         0.0686 
      47 H17       -1.3820    2.9572   10.1193 H         1 <0>         0.0794 
      48 H18       -1.4165    1.9034    8.6852 H         1 <0>         0.0778 
      49 H19        0.1375    4.9383   10.0399 H         1 <0>         0.1198 
      50 H20        0.5145    5.6077    8.4342 H         1 <0>         0.1233 
      51 H21       -0.7829    7.4485    9.9564 H         1 <0>         0.4142 
      52 H22       -4.0266    6.0997    9.7109 H         1 <0>         0.1473 
      53 H23       -6.1062    7.4090    9.5821 H         1 <0>         0.1337 
      54 H24       -6.0109    9.8475    9.2637 H         1 <0>         0.1349 
      55 H25       -3.8367   10.9846    9.0743 H         1 <0>         0.1385 
@<TRIPOS>BOND
       1        1        2 1        
       2        1       31 1        
       3        1       32 1        
       4        1       33 1        
       5        2        3 1        
       6        2        4 1        
       7        2       34 1        
       8        3       35 1        
       9        3       36 1        
      10        3       37 1        
      11        4        9 ar       
      12        4        5 ar       
      13        5        6 ar       
      14        5       38 1        
      15        6        7 ar       
      16        6       39 1        
      17        7        8 ar       
      18        7       10 1        
      19        8        9 ar       
      20        8       40 1        
      21        9       41 1        
      22       10       11 1        
      23       11       12 1        
      24       11       42 1        
      25       11       43 1        
      26       12       13 2        
      27       12       14 1        
      28       14       15 1        
      29       15       16 1        
      30       15       44 1        
      31       15       45 1        
      32       16       17 2        
      33       16       18 am       
      34       18       19 1        
      35       18       20 1        
      36       19       46 1        
      37       19       47 1        
      38       19       48 1        
      39       20       21 1        
      40       20       49 1        
      41       20       50 1        
      42       21       22 2        
      43       21       23 am       
      44       23       24 1        
      45       23       51 1        
      46       24       29 ar       
      47       24       25 ar       
      48       25       26 ar       
      49       25       52 1        
      50       26       27 ar       
      51       26       53 1        
      52       27       28 ar       
      53       27       54 1        
      54       28       29 ar       
      55       28       55 1        
      56       29       30 1        

