#        scan_R01_S0041_C0000_L00001_S0001_C0002_G0010_E0001.mol2
#        Mon Jun 19 14:42:00 2017
#        Descriptor:      1     1     3     3     2     4
#        Energy - RMSD - RMSD MassCentre:     -66.9597    999.9999    999.9999
#        Receptor:       1  Surface Point:    41  Conformer:     0
#        Ligand:         1  Surface Point:     1  Conformer:     2
#        BUDE Formal Charge: 0
#        ATOM Count: 27
#        Heavy ATOM Count: 17
@<TRIPOS>MOLECULE
pdb1gcz_ligA.pdb_scan_R01_S0041_C0000_L00001_S0001_C0002_G0010_E0001
27 28 1 0 0
SMALL
GASTEIGER
@<TRIPOS>ATOM
       1 C3        -5.3547   -3.7557    1.6035 C.3       1 YZ9900      0.0513 
       2 C11       -4.4340   -3.4609    2.7842 C.3       1 YZ9900      0.2089 
       3 O1        -2.5153   -2.6538    4.3902 O.2       1 YZ9900     -0.2447 
       4 O2        -3.3214   -2.6818    2.3370 O.3       1 YZ9900     -0.4453 
       5 C6         1.8559    0.0560    4.1898 C.ar      1 YZ9900      0.0063 
       6 C5        -0.2893   -1.1453    3.7183 C.ar      1 YZ9900      0.0160 
       7 C4         2.0792    0.7961    1.5132 C.ar      1 YZ9900      0.0796 
       8 O3         0.0186   -0.3447    1.0019 O.2       1 YZ9900     -0.4208 
       9 C2         0.8709   -0.3387    3.2782 C.ar      1 YZ9900      0.0353 
      10 C1         0.9831    0.0331    1.9333 C.ar      1 YZ9900      0.1519 
      11 C7        -1.0716   -1.1038    1.4209 C.ar      1 YZ9900      0.3521 
      12 C12       -2.3931   -2.3218    3.2488 C.2       1 YZ9900      0.3476 
      13 O4         4.1219    1.9398    1.9628 O.3       1 YZ9900     -0.2865 
      14 O5        -1.9048   -1.4240    0.5893 O.2       1 YZ9900     -0.2442 
      15 C10        2.9500    0.8189    3.7644 C.ar      1 YZ9900      0.0422 
      16 C9        -1.2235   -1.5153    2.8344 C.ar      1 YZ9900      0.1515 
      17 C8         3.0680    1.1940    2.4209 C.ar      1 YZ9900      0.1988 
      18 H31       -4.8086   -4.3208    0.8509 H         1 YZ9900      0.0000 
      19 H32       -6.2079   -4.3372    1.9463 H         1 YZ9900      0.0000 
      20 H33       -5.7026   -2.8191    1.1731 H         1 YZ9900      0.0000 
      21 H112      -4.0741   -4.3967    3.2069 H         1 YZ9900      0.0000 
      22 H113      -4.9824   -2.9067    3.5430 H         1 YZ9900      0.0000 
      23 H6         1.7760   -0.2271    5.2289 H         1 YZ9900      0.0000 
      24 H5        -0.3668   -1.4270    4.7580 H         1 YZ9900      0.0000 
      25 H4         2.1614    1.0805    0.4746 H         1 YZ9900      0.0000 
      26 HO4        4.0512    2.0910    1.0073 H         1 YZ9900      0.0000 
      27 H10        3.6966    1.1107    4.4882 H         1 YZ9900      0.0000 
@<TRIPOS>BOND
       1       13       17 1        
       2        7       17 ar       
       3        7       10 ar       
       4        8       10 ar       
       5        8       11 ar       
       6       14       11 2        
       7       17       15 ar       
       8       10        9 ar       
       9       11       16 ar       
      10        2        4 1        
      11        2        1 1        
      12       15        5 ar       
      13        9        5 ar       
      14        9        6 ar       
      15       16        6 ar       
      16       16       12 1        
      17        4       12 1        
      18       12        3 2        
      19       18        1 1        
      20       19        1 1        
      21       20        1 1        
      22       21        2 1        
      23       22        2 1        
      24       23        5 1        
      25       24        6 1        
      26       25        7 1        
      27       26       13 1        
      28       27       15 1        
@<TRIPOS>SUBSTRUCTURE
 1 YZ9900 10 RESIDUE 4 A YZ9900 0 ROOT

