#        scan_R01_S0041_C0000_L00001_S0001_C0003_G0010_E0001.mol2
#        Mon Jun 19 14:13:48 2017
#        Descriptor:     18    17    20     3     2     4
#        Energy - RMSD - RMSD MassCentre:     -58.8414    999.9999    999.9999
#        Receptor:       1  Surface Point:    41  Conformer:     0
#        Ligand:         1  Surface Point:     1  Conformer:     3
#        BUDE Formal Charge: 0
#        ATOM Count: 27
#        Heavy ATOM Count: 17
@<TRIPOS>MOLECULE
pdb1gcz_ligA.pdb_scan_R01_S0041_C0000_L00001_S0001_C0003_G0010_E0001
27 28 1 0 0
SMALL
GASTEIGER
@<TRIPOS>ATOM
       1 C3        -4.8841   -3.4364    3.6091 C.3       1 YZ9900      0.0513 
       2 C11       -5.0694   -2.1535    2.8038 C.3       1 YZ9900      0.2089 
       3 O1        -3.1180   -1.4901    4.4360 O.2       1 YZ9900     -0.2447 
       4 O2        -3.7960   -1.6908    2.3465 O.3       1 YZ9900     -0.4453 
       5 C6         1.7248    0.2400    4.2244 C.ar      1 YZ9900      0.0063 
       6 C5        -0.5933   -0.5768    3.7479 C.ar      1 YZ9900      0.0160 
       7 C4         2.2465    0.4794    1.4983 C.ar      1 YZ9900      0.0796 
       8 O3         0.0259   -0.3020    0.9810 O.2       1 YZ9900     -0.4208 
       9 C2         0.7320   -0.0956    3.2978 C.ar      1 YZ9900      0.0353 
      10 C1         0.9941    0.0246    1.9279 C.ar      1 YZ9900      0.1519 
      11 C7        -1.2199   -0.7543    1.4097 C.ar      1 YZ9900      0.3521 
      12 C12       -2.8658   -1.3775    3.2734 C.2       1 YZ9900      0.3476 
      13 O4         4.4537    1.2570    1.9526 O.3       1 YZ9900     -0.2865 
      14 O5        -2.0534   -1.0348    0.5642 O.2       1 YZ9900     -0.2442 
      15 C10        2.9755    0.6942    3.7893 C.ar      1 YZ9900      0.0422 
      16 C9        -1.5328   -0.8941    2.8494 C.ar      1 YZ9900      0.1515 
      17 C8         3.2439    0.8167    2.4208 C.ar      1 YZ9900      0.1988 
      18 H31       -4.2522   -3.2344    4.4715 H         1 YZ9900      0.0000 
      19 H32       -5.8543   -3.7958    3.9458 H         1 YZ9900      0.0000 
      20 H33       -4.4141   -4.1920    2.9832 H         1 YZ9900      0.0000 
      21 H112      -5.5265   -1.3926    3.4328 H         1 YZ9900      0.0000 
      22 H113      -5.7114   -2.3513    1.9480 H         1 YZ9900      0.0000 
      23 H6         1.5297    0.1497    5.2828 H         1 YZ9900      0.0000 
      24 H5        -0.7856   -0.6661    4.8069 H         1 YZ9900      0.0000 
      25 H4         2.4441    0.5705    0.4403 H         1 YZ9900      0.0000 
      26 HO4        4.4696    1.2628    0.9827 H         1 YZ9900      0.0000 
      27 H10        3.7246    0.9468    4.5251 H         1 YZ9900      0.0000 
@<TRIPOS>BOND
       1       13       17 1        
       2        7       17 ar       
       3        7       10 ar       
       4        8       10 ar       
       5        8       11 ar       
       6       14       11 2        
       7       17       15 ar       
       8       10        9 ar       
       9       11       16 ar       
      10        2        4 1        
      11        2        1 1        
      12       15        5 ar       
      13        9        5 ar       
      14        9        6 ar       
      15       16        6 ar       
      16       16       12 1        
      17        4       12 1        
      18       12        3 2        
      19       18        1 1        
      20       19        1 1        
      21       20        1 1        
      22       21        2 1        
      23       22        2 1        
      24       23        5 1        
      25       24        6 1        
      26       25        7 1        
      27       26       13 1        
      28       27       15 1        
@<TRIPOS>SUBSTRUCTURE
 1 YZ9900 10 RESIDUE 4 A YZ9900 0 ROOT

