#        scan_R01_S0042_C0000_L00001_S0001_C0000_G0010_E0001.mol2
#        Mon Jun 19 14:42:01 2017
#        Descriptor:     11     6     1     3     3     5
#        Energy - RMSD - RMSD MassCentre:     -57.3144    999.9999    999.9999
#        Receptor:       1  Surface Point:    42  Conformer:     0
#        Ligand:         1  Surface Point:     1  Conformer:     0
#        BUDE Formal Charge: 0
#        ATOM Count: 27
#        Heavy ATOM Count: 17
@<TRIPOS>MOLECULE
pdb1gcz_ligA.pdb_scan_R01_S0042_C0000_L00001_S0001_C0000_G0010_E0001
27 28 1 0 0
SMALL
GASTEIGER
@<TRIPOS>ATOM
       1 C3         5.8924    2.1405    3.8939 C.3       1 YZ9900      0.0513 
       2 C11        4.6273    2.7042    3.3128 C.3       1 YZ9900      0.2089 
       3 O1         3.9823   -0.2566    1.7244 O.2       1 YZ9900     -0.2447 
       4 O2         4.2655    1.9481    2.0888 O.3       1 YZ9900     -0.4453 
       5 C6        -0.6603   -1.1830    3.9907 C.ar      1 YZ9900      0.0063 
       6 C5         1.4310   -0.2757    2.9122 C.ar      1 YZ9900      0.0160 
       7 C4        -2.0226    1.3521    3.4006 C.ar      1 YZ9900      0.0796 
       8 O3         0.0250    2.1155    2.3940 O.2       1 YZ9900     -0.4208 
       9 C2         0.0017   -0.1238    3.3254 C.ar      1 YZ9900      0.0353 
      10 C1        -0.6780    1.1016    3.0467 C.ar      1 YZ9900      0.1519 
      11 C7         1.2992    2.0321    2.0854 C.ar      1 YZ9900      0.3521 
      12 C12        3.5239    0.8010    2.0332 C.2       1 YZ9900      0.3476 
      13 O4        -3.9256    0.3760    4.4629 O.3       1 YZ9900     -0.2865 
      14 O5         1.8123    2.9516    1.5855 O.2       1 YZ9900     -0.2442 
      15 C10       -2.0186   -0.9801    4.3719 C.ar      1 YZ9900      0.0422 
      16 C9         2.0622    0.8090    2.3663 C.ar      1 YZ9900      0.1515 
      17 C8        -2.6453    0.2510    4.0731 C.ar      1 YZ9900      0.1988 
      18 H31        5.7485    1.0846    4.1232 H         1 YZ9900      0.0000 
      19 H32        6.7027    2.2483    3.1727 H         1 YZ9900      0.0000 
      20 H33        6.1445    2.6797    4.8070 H         1 YZ9900      0.0000 
      21 H112       4.7798    3.7535    3.0599 H         1 YZ9900      0.0000 
      22 H113       3.8226    2.6197    4.0433 H         1 YZ9900      0.0000 
      23 H6        -0.1539   -2.1129    4.2022 H         1 YZ9900      0.0000 
      24 H5         1.9499   -1.2140    3.0409 H         1 YZ9900      0.0000 
      25 H4        -2.5303    2.2807    3.1857 H         1 YZ9900      0.0000 
      26 HO4       -3.9635    0.4517    5.4192 H         1 YZ9900      0.0000 
      27 H10       -2.5636   -1.7594    4.8840 H         1 YZ9900      0.0000 
@<TRIPOS>BOND
       1       13       17 1        
       2        7       17 ar       
       3        7       10 ar       
       4        8       10 ar       
       5        8       11 ar       
       6       14       11 2        
       7       17       15 ar       
       8       10        9 ar       
       9       11       16 ar       
      10        2        4 1        
      11        2        1 1        
      12       15        5 ar       
      13        9        5 ar       
      14        9        6 ar       
      15       16        6 ar       
      16       16       12 1        
      17        4       12 1        
      18       12        3 2        
      19       18        1 1        
      20       19        1 1        
      21       20        1 1        
      22       21        2 1        
      23       22        2 1        
      24       23        5 1        
      25       24        6 1        
      26       25        7 1        
      27       26       13 1        
      28       27       15 1        
@<TRIPOS>SUBSTRUCTURE
 1 YZ9900 10 RESIDUE 4 A YZ9900 0 ROOT

