#        scan_R01_S0042_C0000_L00001_S0001_C0000_G0010_E0001.mol2
#        Mon Jun 19 14:13:49 2017
#        Descriptor:     19     3    32     3     3     5
#        Energy - RMSD - RMSD MassCentre:     -55.4756    999.9999    999.9999
#        Receptor:       1  Surface Point:    42  Conformer:     0
#        Ligand:         1  Surface Point:     1  Conformer:     0
#        BUDE Formal Charge: 0
#        ATOM Count: 27
#        Heavy ATOM Count: 17
@<TRIPOS>MOLECULE
pdb1gcz_ligA.pdb_scan_R01_S0042_C0000_L00001_S0001_C0000_G0010_E0001
27 28 1 0 0
SMALL
GASTEIGER
@<TRIPOS>ATOM
       1 C3         5.8310    2.0184    4.2884 C.3       1 YZ9900      0.0513 
       2 C11        4.4183    2.4748    4.5165 C.3       1 YZ9900      0.2089 
       3 O1         3.7284    2.1595    1.1802 O.2       1 YZ9900     -0.2447 
       4 O2         3.8672    3.0267    3.2545 O.3       1 YZ9900     -0.4453 
       5 C6        -0.1713   -1.3185    1.6747 C.ar      1 YZ9900      0.0063 
       6 C5         1.5240    0.5409    1.8444 C.ar      1 YZ9900      0.0160 
       7 C4        -1.8748    0.1063    3.5978 C.ar      1 YZ9900      0.0796 
       8 O3        -0.1915    1.8234    3.6816 O.2       1 YZ9900     -0.4208 
       9 C2         0.2164   -0.0750    2.2283 C.ar      1 YZ9900      0.0353 
      10 C1        -0.6262    0.6031    3.1618 C.ar      1 YZ9900      0.1519 
      11 C7         0.9825    2.3487    3.4146 C.ar      1 YZ9900      0.3521 
      12 C12        3.2490    2.3194    2.2613 C.2       1 YZ9900      0.3476 
      13 O4        -3.3844   -1.7280    3.3549 O.3       1 YZ9900     -0.2865 
      14 O5         1.2768    3.3486    3.9364 O.2       1 YZ9900     -0.2442 
      15 C10       -1.4223   -1.8650    2.0839 C.ar      1 YZ9900      0.0422 
      16 C9         1.9061    1.6903    2.4815 C.ar      1 YZ9900      0.1515 
      17 C8        -2.2185   -1.1544    3.0106 C.ar      1 YZ9900      0.1988 
      18 H31        5.8473    1.2653    3.5004 H         1 YZ9900      0.0000 
      19 H32        6.4437    2.8692    3.9902 H         1 YZ9900      0.0000 
      20 H33        6.2274    1.5900    5.2089 H         1 YZ9900      0.0000 
      21 H112       4.4057    3.2463    5.2864 H         1 YZ9900      0.0000 
      22 H113       3.8108    1.6293    4.8392 H         1 YZ9900      0.0000 
      23 H6         0.4591   -1.8353    0.9664 H         1 YZ9900      0.0000 
      24 H5         2.1487    0.0917    1.0865 H         1 YZ9900      0.0000 
      25 H4        -2.5070    0.6251    4.3031 H         1 YZ9900      0.0000 
      26 HO4       -3.2137   -2.4944    3.9072 H         1 YZ9900      0.0000 
      27 H10       -1.7586   -2.8127    1.6899 H         1 YZ9900      0.0000 
@<TRIPOS>BOND
       1       13       17 1        
       2        7       17 ar       
       3        7       10 ar       
       4        8       10 ar       
       5        8       11 ar       
       6       14       11 2        
       7       17       15 ar       
       8       10        9 ar       
       9       11       16 ar       
      10        2        4 1        
      11        2        1 1        
      12       15        5 ar       
      13        9        5 ar       
      14        9        6 ar       
      15       16        6 ar       
      16       16       12 1        
      17        4       12 1        
      18       12        3 2        
      19       18        1 1        
      20       19        1 1        
      21       20        1 1        
      22       21        2 1        
      23       22        2 1        
      24       23        5 1        
      25       24        6 1        
      26       25        7 1        
      27       26       13 1        
      28       27       15 1        
@<TRIPOS>SUBSTRUCTURE
 1 YZ9900 10 RESIDUE 4 A YZ9900 0 ROOT

