#        scan_R01_S0042_C0000_L00001_S0001_C0002_G0010_E0001.mol2
#        Mon Jun 19 14:13:50 2017
#        Descriptor:     13    20     2     3     3     4
#        Energy - RMSD - RMSD MassCentre:     -54.3635    999.9999    999.9999
#        Receptor:       1  Surface Point:    42  Conformer:     0
#        Ligand:         1  Surface Point:     1  Conformer:     2
#        BUDE Formal Charge: 0
#        ATOM Count: 27
#        Heavy ATOM Count: 17
@<TRIPOS>MOLECULE
pdb1gcz_ligA.pdb_scan_R01_S0042_C0000_L00001_S0001_C0002_G0010_E0001
27 28 1 0 0
SMALL
GASTEIGER
@<TRIPOS>ATOM
       1 C3         7.5665    2.6086    4.9897 C.3       1 YZ9900      0.0513 
       2 C11        6.6071    1.4481    5.2374 C.3       1 YZ9900      0.2089 
       3 O1         4.6137   -0.2660    5.2329 O.2       1 YZ9900     -0.2447 
       4 O2         5.4607    1.5904    4.3946 O.3       1 YZ9900     -0.4453 
       5 C6         0.0989   -0.9904    2.8701 C.ar      1 YZ9900      0.0063 
       6 C5         2.3185   -0.1652    3.6823 C.ar      1 YZ9900      0.0160 
       7 C4        -0.1133    1.1702    1.1242 C.ar      1 YZ9900      0.0796 
       8 O3         2.0193    2.0110    1.8688 O.2       1 YZ9900     -0.4208 
       9 C2         1.1229   -0.0387    2.8193 C.ar      1 YZ9900      0.0353 
      10 C1         1.0163    1.0471    1.9421 C.ar      1 YZ9900      0.1519 
      11 C7         3.1427    1.8875    2.6830 C.ar      1 YZ9900      0.3521 
      12 C12        4.4953    0.6499    4.4745 C.2       1 YZ9900      0.3476 
      13 O4        -2.2268    0.3839    0.3512 O.3       1 YZ9900     -0.2865 
      14 O5         4.0093    2.7425    2.6032 O.2       1 YZ9900     -0.2442 
      15 C10       -1.0285   -0.8624    2.0500 C.ar      1 YZ9900      0.0422 
      16 C9         3.2898    0.7534    3.6224 C.ar      1 YZ9900      0.1515 
      17 C8        -1.1411    0.2209    1.1706 C.ar      1 YZ9900      0.1988 
      18 H31        7.0688    3.5467    5.2269 H         1 YZ9900      0.0000 
      19 H32        8.4447    2.4933    5.6214 H         1 YZ9900      0.0000 
      20 H33        7.8686    2.6118    3.9445 H         1 YZ9900      0.0000 
      21 H112       6.2932    1.4522    6.2792 H         1 YZ9900      0.0000 
      22 H113       7.1075    0.5087    5.0125 H         1 YZ9900      0.0000 
      23 H6         0.1742   -1.8307    3.5445 H         1 YZ9900      0.0000 
      24 H5         2.3913   -1.0064    4.3557 H         1 YZ9900      0.0000 
      25 H4        -0.1910    2.0095    0.4489 H         1 YZ9900      0.0000 
      26 HO4       -2.1459    1.1944   -0.1756 H         1 YZ9900      0.0000 
      27 H10       -1.8049   -1.6109    2.1085 H         1 YZ9900      0.0000 
@<TRIPOS>BOND
       1       13       17 1        
       2        7       17 ar       
       3        7       10 ar       
       4        8       10 ar       
       5        8       11 ar       
       6       14       11 2        
       7       17       15 ar       
       8       10        9 ar       
       9       11       16 ar       
      10        2        4 1        
      11        2        1 1        
      12       15        5 ar       
      13        9        5 ar       
      14        9        6 ar       
      15       16        6 ar       
      16       16       12 1        
      17        4       12 1        
      18       12        3 2        
      19       18        1 1        
      20       19        1 1        
      21       20        1 1        
      22       21        2 1        
      23       22        2 1        
      24       23        5 1        
      25       24        6 1        
      26       25        7 1        
      27       26       13 1        
      28       27       15 1        
@<TRIPOS>SUBSTRUCTURE
 1 YZ9900 10 RESIDUE 4 A YZ9900 0 ROOT

