#        scan_R01_S0042_C0000_L00001_S0001_C0003_G0010_E0001.mol2
#        Mon Jun 19 14:13:50 2017
#        Descriptor:     29    35    22     3     2     4
#        Energy - RMSD - RMSD MassCentre:     -60.7182    999.9999    999.9999
#        Receptor:       1  Surface Point:    42  Conformer:     0
#        Ligand:         1  Surface Point:     1  Conformer:     3
#        BUDE Formal Charge: 0
#        ATOM Count: 27
#        Heavy ATOM Count: 17
@<TRIPOS>MOLECULE
pdb1gcz_ligA.pdb_scan_R01_S0042_C0000_L00001_S0001_C0003_G0010_E0001
27 28 1 0 0
SMALL
GASTEIGER
@<TRIPOS>ATOM
       1 C3         6.8861    2.1102    5.1499 C.3       1 YZ9900      0.0513 
       2 C11        6.7639    2.4704    3.6720 C.3       1 YZ9900      0.2089 
       3 O1         5.7020    0.0661    3.7321 O.2       1 YZ9900     -0.2447 
       4 O2         5.4340    2.1959    3.2238 O.3       1 YZ9900     -0.4453 
       5 C6         1.2834   -2.2768    2.5164 C.ar      1 YZ9900      0.0063 
       6 C5         3.1567   -0.6641    2.9133 C.ar      1 YZ9900      0.0160 
       7 C4        -0.3235   -0.2308    1.5199 C.ar      1 YZ9900      0.0796 
       8 O3         1.4456    1.3658    1.8808 O.2       1 YZ9900     -0.4208 
       9 C2         1.7835   -0.9718    2.4550 C.ar      1 YZ9900      0.0353 
      10 C1         0.9760    0.0564    1.9544 C.ar      1 YZ9900      0.1519 
      11 C7         2.7388    1.6504    2.3133 C.ar      1 YZ9900      0.3521 
      12 C12        4.9901    0.9232    3.3001 C.2       1 YZ9900      0.3476 
      13 O4        -2.1069   -1.7669    1.1422 O.3       1 YZ9900     -0.2865 
      14 O5         3.1304    2.8035    2.2402 O.2       1 YZ9900     -0.2442 
      15 C10       -0.0169   -2.5584    2.0806 C.ar      1 YZ9900      0.0422 
      16 C9         3.6209    0.5893    2.8484 C.ar      1 YZ9900      0.1515 
      17 C8        -0.8293   -1.5347    1.5789 C.ar      1 YZ9900      0.1988 
      18 H31        6.6816    1.0498    5.2821 H         1 YZ9900      0.0000 
      19 H32        7.8941    2.3316    5.4943 H         1 YZ9900      0.0000 
      20 H33        6.1696    2.6929    5.7249 H         1 YZ9900      0.0000 
      21 H112       7.4702    1.8781    3.0942 H         1 YZ9900      0.0000 
      22 H113       6.9804    3.5279    3.5368 H         1 YZ9900      0.0000 
      23 H6         1.9005   -3.0751    2.9014 H         1 YZ9900      0.0000 
      24 H5         3.7717   -1.4643    3.2979 H         1 YZ9900      0.0000 
      25 H4        -0.9427    0.5658    1.1344 H         1 YZ9900      0.0000 
      26 HO4       -2.5275   -0.9445    0.8459 H         1 YZ9900      0.0000 
      27 H10       -0.3789   -3.5743    2.1386 H         1 YZ9900      0.0000 
@<TRIPOS>BOND
       1       13       17 1        
       2        7       17 ar       
       3        7       10 ar       
       4        8       10 ar       
       5        8       11 ar       
       6       14       11 2        
       7       17       15 ar       
       8       10        9 ar       
       9       11       16 ar       
      10        2        4 1        
      11        2        1 1        
      12       15        5 ar       
      13        9        5 ar       
      14        9        6 ar       
      15       16        6 ar       
      16       16       12 1        
      17        4       12 1        
      18       12        3 2        
      19       18        1 1        
      20       19        1 1        
      21       20        1 1        
      22       21        2 1        
      23       22        2 1        
      24       23        5 1        
      25       24        6 1        
      26       25        7 1        
      27       26       13 1        
      28       27       15 1        
@<TRIPOS>SUBSTRUCTURE
 1 YZ9900 10 RESIDUE 4 A YZ9900 0 ROOT

