#        1GCZ_R01_S0001_C0000_L00005_S0001_C0001_G0010_E0001.mol2
#        Tue Jun  6 09:55:29 2017
#        Descriptor:     36    19    32     8     9    13
#        Energy - RMSD - RMSD MassCentre:     -60.7316    999.9999    999.9999
#        Receptor:       1  Surface Point:     1  Conformer:     0
#        Ligand:         5  Surface Point:     1  Conformer:     1
#        BUDE Formal Charge: 0
#        ATOM Count: 55
#        Heavy ATOM Count: 30
@<TRIPOS>MOLECULE
ZINC61464195_1GCZ_R01_S0001_C0000_L00005_S0001_C0001_G0010_E0001
 55 56 0 0 0
SMALL
USER_CHARGES
@<TRIPOS>ATOM
       1 C1        -3.1590    0.4125   10.0289 C.3       1 <0>        -0.1456 
       2 C2        -2.2424    0.2181    8.8244 C.3       1 <0>        -0.0579 
       3 C3        -3.0290    0.4648    7.5403 C.3       1 <0>        -0.1456 
       4 C4        -1.0931    1.1940    8.9049 C.ar      1 <0>        -0.0771 
       5 C5         0.2085    0.6839    8.9784 C.ar      1 <0>        -0.0943 
       6 C6         1.3015    1.5584    8.9535 C.ar      1 <0>        -0.0923 
       7 C7         1.1037    2.9403    8.8491 C.ar      1 <0>        -0.1041 
       8 C8        -0.1949    3.4629    8.8281 C.ar      1 <0>        -0.1315 
       9 C9        -1.2829    2.5841    8.8878 C.ar      1 <0>        -0.0969 
      10 S1         2.5009    4.0226    8.7513 S.3       1 <0>        -0.0341 
      11 C10        2.9610    4.2612    7.0066 C.3       1 <0>        -0.1267 
      12 C11        3.3304    2.9296    6.3979 C.2       1 <0>         0.4864 
      13 O1         4.4796    2.6355    6.2545 O.2       1 <0>        -0.4815 
      14 O2         2.3616    2.0709    6.0151 O.3       1 <0>        -0.3231 
      15 C12        2.7597    0.8219    5.4437 C.3       1 <0>         0.0526 
      16 C13        1.5319    0.0181    5.0881 C.2       1 <0>         0.5250 
      17 O3         1.3631   -1.0963    5.5806 O.2       1 <0>        -0.5082 
      18 N1         0.6331    0.5141    4.2427 N.am      1 <0>        -0.5981 
      19 C14        0.8348    1.8459    3.6542 C.3       1 <0>         0.0731 
      20 C15       -0.5616   -0.2699    3.8976 C.3       1 <0>         0.1010 
      21 C16       -0.8197   -0.1652    2.4134 C.2       1 <0>         0.4997 
      22 O4        -1.9328    0.1613    2.0047 O.2       1 <0>        -0.5061 
      23 N2         0.1569   -0.4263    1.5490 N.am      1 <0>        -0.6702 
      24 C17       -0.0849   -0.3281    0.1583 C.ar      1 <0>         0.1553 
      25 C18        0.4175   -1.3044   -0.7102 C.ar      1 <0>        -0.1106 
      26 C19        0.1697   -1.2070   -2.0846 C.ar      1 <0>        -0.0959 
      27 C20       -0.5698   -0.1354   -2.5927 C.ar      1 <0>        -0.1208 
      28 C21       -1.0611    0.8487   -1.7266 C.ar      1 <0>        -0.0919 
      29 C22       -0.8208    0.7485   -0.3510 C.ar      1 <0>        -0.0639 
      30 Cl1       -1.4264    1.9715    0.7284 Cl        1 <0>        -0.0632 
      31 H1        -3.5559    1.4255   10.0219 H         1 <0>         0.0596 
      32 H2        -3.9799   -0.2998    9.9778 H         1 <0>         0.0563 
      33 H3        -2.5935    0.2501   10.9441 H         1 <0>         0.0575 
      34 H4        -1.8546   -0.7984    8.8233 H         1 <0>         0.0784 
      35 H5        -2.3778    0.3137    6.6821 H         1 <0>         0.0596 
      36 H6        -3.4043    1.4861    7.5362 H         1 <0>         0.0574 
      37 H7        -3.8651   -0.2296    7.4888 H         1 <0>         0.0563 
      38 H8         0.3868   -0.3796    9.0383 H         1 <0>         0.1285 
      39 H9         2.3236    1.2132    9.0028 H         1 <0>         0.1293 
      40 H10       -0.3320    4.5323    8.7664 H         1 <0>         0.1227 
      41 H11       -2.2769    3.0059    8.9067 H         1 <0>         0.1262 
      42 H12        2.1194    4.6864    6.4638 H         1 <0>         0.1329 
      43 H13        3.8120    4.9363    6.9444 H         1 <0>         0.1329 
      44 H14        3.3593    0.2680    6.1630 H         1 <0>         0.1063 
      45 H15        3.3461    1.0038    4.5455 H         1 <0>         0.1054 
      46 H16        1.7562    1.8501    3.0756 H         1 <0>         0.0686 
      47 H17       -0.0039    2.0850    3.0038 H         1 <0>         0.0794 
      48 H18        0.9013    2.5864    4.4485 H         1 <0>         0.0778 
      49 H19       -0.4007   -1.3120    4.1657 H         1 <0>         0.1198 
      50 H20       -1.4192    0.1176    4.4437 H         1 <0>         0.1233 
      51 H21        1.0707   -0.6942    1.8858 H         1 <0>         0.4142 
      52 H22        0.9899   -2.1348   -0.3238 H         1 <0>         0.1473 
      53 H23        0.5518   -1.9653   -2.7522 H         1 <0>         0.1337 
      54 H24       -0.7640   -0.0629   -3.6525 H         1 <0>         0.1349 
      55 H25       -1.6271    1.6809   -2.1183 H         1 <0>         0.1385 
@<TRIPOS>BOND
       1        1        2 1        
       2        1       31 1        
       3        1       32 1        
       4        1       33 1        
       5        2        3 1        
       6        2        4 1        
       7        2       34 1        
       8        3       35 1        
       9        3       36 1        
      10        3       37 1        
      11        4        9 ar       
      12        4        5 ar       
      13        5        6 ar       
      14        5       38 1        
      15        6        7 ar       
      16        6       39 1        
      17        7        8 ar       
      18        7       10 1        
      19        8        9 ar       
      20        8       40 1        
      21        9       41 1        
      22       10       11 1        
      23       11       12 1        
      24       11       42 1        
      25       11       43 1        
      26       12       13 2        
      27       12       14 1        
      28       14       15 1        
      29       15       16 1        
      30       15       44 1        
      31       15       45 1        
      32       16       17 2        
      33       16       18 am       
      34       18       19 1        
      35       18       20 1        
      36       19       46 1        
      37       19       47 1        
      38       19       48 1        
      39       20       21 1        
      40       20       49 1        
      41       20       50 1        
      42       21       22 2        
      43       21       23 am       
      44       23       24 1        
      45       23       51 1        
      46       24       29 ar       
      47       24       25 ar       
      48       25       26 ar       
      49       25       52 1        
      50       26       27 ar       
      51       26       53 1        
      52       27       28 ar       
      53       27       54 1        
      54       28       29 ar       
      55       28       55 1        
      56       29       30 1        

