#        scan_R01_S0043_C0000_L00001_S0001_C0000_G0010_E0001.mol2
#        Mon Jun 19 14:42:03 2017
#        Descriptor:      2    33    15     3     1     3
#        Energy - RMSD - RMSD MassCentre:     -31.4338    999.9999    999.9999
#        Receptor:       1  Surface Point:    43  Conformer:     0
#        Ligand:         1  Surface Point:     1  Conformer:     0
#        BUDE Formal Charge: 0
#        ATOM Count: 27
#        Heavy ATOM Count: 17
@<TRIPOS>MOLECULE
pdb1gcz_ligA.pdb_scan_R01_S0043_C0000_L00001_S0001_C0000_G0010_E0001
27 28 1 0 0
SMALL
GASTEIGER
@<TRIPOS>ATOM
       1 C3         0.6054    3.7279   -0.8780 C.3       1 YZ9900      0.0513 
       2 C11        1.3970    2.4583   -1.0105 C.3       1 YZ9900      0.2089 
       3 O1         1.5450    2.1406    2.3929 O.2       1 YZ9900     -0.2447 
       4 O2         2.1745    2.2285    0.2319 O.3       1 YZ9900     -0.4453 
       5 C6        -0.8141   -2.5388    2.6866 C.ar      1 YZ9900      0.0063 
       6 C5         0.5144   -0.4660    2.1401 C.ar      1 YZ9900      0.0160 
       7 C4         0.8479   -4.0590    0.8006 C.ar      1 YZ9900      0.0796 
       8 O3         2.0496   -2.0226    0.3560 O.2       1 YZ9900     -0.4208 
       9 C2         0.2348   -1.9243    1.9619 C.ar      1 YZ9900      0.0353 
      10 C1         1.0327   -2.6807    1.0495 C.ar      1 YZ9900      0.1519 
      11 C7         2.2678   -0.7301    0.4423 C.ar      1 YZ9900      0.3521 
      12 C12        1.7373    1.5836    1.3551 C.2       1 YZ9900      0.3476 
      13 O4        -0.4994   -5.9380    1.3978 O.3       1 YZ9900     -0.2865 
      14 O5         3.1096   -0.2625   -0.2145 O.2       1 YZ9900     -0.2442 
      15 C10       -1.0439   -3.9286    2.4699 C.ar      1 YZ9900      0.0422 
      16 C9         1.4675    0.1089    1.3439 C.ar      1 YZ9900      0.1515 
      17 C8        -0.2264   -4.6314    1.5559 C.ar      1 YZ9900      0.1988 
      18 H31       -0.0592    3.6541   -0.0172 H         1 YZ9900      0.0000 
      19 H32        1.2865    4.5676   -0.7400 H         1 YZ9900      0.0000 
      20 H33        0.0149    3.8836   -1.7808 H         1 YZ9900      0.0000 
      21 H112       2.0798    2.5425   -1.8560 H         1 YZ9900      0.0000 
      22 H113       0.7176    1.6217   -1.1740 H         1 YZ9900      0.0000 
      23 H6        -1.4194   -1.9742    3.3801 H         1 YZ9900      0.0000 
      24 H5        -0.0203    0.1165    2.8756 H         1 YZ9900      0.0000 
      25 H4         1.4558   -4.6246    0.1100 H         1 YZ9900      0.0000 
      26 HO4       -1.3257   -6.0372    0.9195 H         1 YZ9900      0.0000 
      27 H10       -1.8348   -4.4396    2.9988 H         1 YZ9900      0.0000 
@<TRIPOS>BOND
       1       13       17 1        
       2        7       17 ar       
       3        7       10 ar       
       4        8       10 ar       
       5        8       11 ar       
       6       14       11 2        
       7       17       15 ar       
       8       10        9 ar       
       9       11       16 ar       
      10        2        4 1        
      11        2        1 1        
      12       15        5 ar       
      13        9        5 ar       
      14        9        6 ar       
      15       16        6 ar       
      16       16       12 1        
      17        4       12 1        
      18       12        3 2        
      19       18        1 1        
      20       19        1 1        
      21       20        1 1        
      22       21        2 1        
      23       22        2 1        
      24       23        5 1        
      25       24        6 1        
      26       25        7 1        
      27       26       13 1        
      28       27       15 1        
@<TRIPOS>SUBSTRUCTURE
 1 YZ9900 10 RESIDUE 4 A YZ9900 0 ROOT

