#        scan_R01_S0043_C0000_L00001_S0001_C0000_G0010_E0001.mol2
#        Mon Jun 19 14:13:51 2017
#        Descriptor:     28    31    13     2     1     3
#        Energy - RMSD - RMSD MassCentre:     -22.5442    999.9999    999.9999
#        Receptor:       1  Surface Point:    43  Conformer:     0
#        Ligand:         1  Surface Point:     1  Conformer:     0
#        BUDE Formal Charge: 0
#        ATOM Count: 27
#        Heavy ATOM Count: 17
@<TRIPOS>MOLECULE
pdb1gcz_ligA.pdb_scan_R01_S0043_C0000_L00001_S0001_C0000_G0010_E0001
27 28 1 0 0
SMALL
GASTEIGER
@<TRIPOS>ATOM
       1 C3        -3.5813    2.6344    0.9832 C.3       1 YZ9900      0.0513 
       2 C11       -2.1831    2.3454    1.4495 C.3       1 YZ9900      0.2089 
       3 O1        -3.1285   -0.7694    2.5032 O.2       1 YZ9900     -0.2447 
       4 O2        -2.2178    1.2908    2.4922 O.3       1 YZ9900     -0.4453 
       5 C6         0.2005   -3.4858   -0.5113 C.ar      1 YZ9900      0.0063 
       6 C5        -1.0366   -1.8634    0.9710 C.ar      1 YZ9900      0.0160 
       7 C4         2.7260   -2.1772    0.2231 C.ar      1 YZ9900      0.0796 
       8 O3         1.4462   -0.6836    1.6087 O.2       1 YZ9900     -0.4208 
       9 C2         0.2338   -2.3889    0.3823 C.ar      1 YZ9900      0.0353 
      10 C1         1.4722   -1.7660    0.7279 C.ar      1 YZ9900      0.1519 
      11 C7         0.3384   -0.1599    2.0821 C.ar      1 YZ9900      0.3521 
      12 C12       -2.1950   -0.0598    2.2815 C.2       1 YZ9900      0.3476 
      13 O4         3.7680   -3.7638   -1.2259 O.3       1 YZ9900     -0.2865 
      14 O5         0.4156    0.7757    2.7730 O.2       1 YZ9900     -0.2442 
      15 C10        1.4393   -3.9386   -1.0514 C.ar      1 YZ9900      0.0422 
      16 C9        -0.9696   -0.7379    1.7467 C.ar      1 YZ9900      0.1515 
      17 C8         2.6368   -3.2875   -0.6778 C.ar      1 YZ9900      0.1988 
      18 H31       -4.0303    1.7216    0.5915 H         1 YZ9900      0.0000 
      19 H32       -4.1750    3.0005    1.8209 H         1 YZ9900      0.0000 
      20 H33       -3.5537    3.3913    0.1993 H         1 YZ9900      0.0000 
      21 H112      -1.7438    3.2525    1.8646 H         1 YZ9900      0.0000 
      22 H113      -1.5823    2.0035    0.6067 H         1 YZ9900      0.0000 
      23 H6        -0.7315   -3.9634   -0.7749 H         1 YZ9900      0.0000 
      24 H5        -1.9795   -2.3575    0.7892 H         1 YZ9900      0.0000 
      25 H4         3.6584   -1.7020    0.4897 H         1 YZ9900      0.0000 
      26 HO4        3.7935   -3.5350   -2.1578 H         1 YZ9900      0.0000 
      27 H10        1.4627   -4.7709   -1.7393 H         1 YZ9900      0.0000 
@<TRIPOS>BOND
       1       13       17 1        
       2        7       17 ar       
       3        7       10 ar       
       4        8       10 ar       
       5        8       11 ar       
       6       14       11 2        
       7       17       15 ar       
       8       10        9 ar       
       9       11       16 ar       
      10        2        4 1        
      11        2        1 1        
      12       15        5 ar       
      13        9        5 ar       
      14        9        6 ar       
      15       16        6 ar       
      16       16       12 1        
      17        4       12 1        
      18       12        3 2        
      19       18        1 1        
      20       19        1 1        
      21       20        1 1        
      22       21        2 1        
      23       22        2 1        
      24       23        5 1        
      25       24        6 1        
      26       25        7 1        
      27       26       13 1        
      28       27       15 1        
@<TRIPOS>SUBSTRUCTURE
 1 YZ9900 10 RESIDUE 4 A YZ9900 0 ROOT

