#        scan_R01_S0043_C0000_L00001_S0001_C0003_G0010_E0001.mol2
#        Mon Jun 19 14:13:52 2017
#        Descriptor:     25     2    17     3     1     3
#        Energy - RMSD - RMSD MassCentre:     -25.9286    999.9999    999.9999
#        Receptor:       1  Surface Point:    43  Conformer:     0
#        Ligand:         1  Surface Point:     1  Conformer:     3
#        BUDE Formal Charge: 0
#        ATOM Count: 27
#        Heavy ATOM Count: 17
@<TRIPOS>MOLECULE
pdb1gcz_ligA.pdb_scan_R01_S0043_C0000_L00001_S0001_C0003_G0010_E0001
27 28 1 0 0
SMALL
GASTEIGER
@<TRIPOS>ATOM
       1 C3         6.3993   -4.9976   -0.9718 C.3       1 YZ9900      0.0513 
       2 C11        6.1948   -3.7203   -1.7813 C.3       1 YZ9900      0.2089 
       3 O1         3.7180   -4.4912   -1.3531 O.2       1 YZ9900     -0.2447 
       4 O2         5.2246   -2.8951   -1.1311 O.3       1 YZ9900     -0.4453 
       5 C6        -0.6201   -2.6859    0.7475 C.ar      1 YZ9900      0.0063 
       6 C5         1.7015   -3.0460   -0.1173 C.ar      1 YZ9900      0.0160 
       7 C4         0.0596   -0.1331    1.6320 C.ar      1 YZ9900      0.0796 
       8 O3         2.3095   -0.4250    0.8184 O.2       1 YZ9900     -0.4208 
       9 C2         0.6808   -2.2098    0.5530 C.ar      1 YZ9900      0.0353 
      10 C1         1.0224   -0.9270    0.9975 C.ar      1 YZ9900      0.1519 
      11 C7         3.2666   -1.2159    0.1869 C.ar      1 YZ9900      0.3521 
      12 C12        3.9807   -3.3925   -0.9633 C.2       1 YZ9900      0.3476 
      13 O4        -2.1513    0.2092    2.4553 O.3       1 YZ9900     -0.2865 
      14 O5         4.3876   -0.7572    0.0401 O.2       1 YZ9900     -0.2442 
      15 C10       -1.5791   -1.8878    1.3826 C.ar      1 YZ9900      0.0422 
      16 C9         2.9419   -2.5766   -0.2960 C.ar      1 YZ9900      0.1515 
      17 C8        -1.2438   -0.6042    1.8294 C.ar      1 YZ9900      0.1988 
      18 H31        5.4589   -5.5415   -0.9100 H         1 YZ9900      0.0000 
      19 H32        7.1473   -5.6193   -1.4594 H         1 YZ9900      0.0000 
      20 H33        6.7372   -4.7411    0.0300 H         1 YZ9900      0.0000 
      21 H112       5.8433   -3.9747   -2.7790 H         1 YZ9900      0.0000 
      22 H113       7.1373   -3.1817   -1.8544 H         1 YZ9900      0.0000 
      23 H6        -0.8909   -3.6745    0.4072 H         1 YZ9900      0.0000 
      24 H5         1.4281   -4.0342   -0.4566 H         1 YZ9900      0.0000 
      25 H4         0.3279    0.8560    1.9732 H         1 YZ9900      0.0000 
      26 HO4       -1.7441    1.0516    2.7113 H         1 YZ9900      0.0000 
      27 H10       -2.5762   -2.2790    1.5204 H         1 YZ9900      0.0000 
@<TRIPOS>BOND
       1       13       17 1        
       2        7       17 ar       
       3        7       10 ar       
       4        8       10 ar       
       5        8       11 ar       
       6       14       11 2        
       7       17       15 ar       
       8       10        9 ar       
       9       11       16 ar       
      10        2        4 1        
      11        2        1 1        
      12       15        5 ar       
      13        9        5 ar       
      14        9        6 ar       
      15       16        6 ar       
      16       16       12 1        
      17        4       12 1        
      18       12        3 2        
      19       18        1 1        
      20       19        1 1        
      21       20        1 1        
      22       21        2 1        
      23       22        2 1        
      24       23        5 1        
      25       24        6 1        
      26       25        7 1        
      27       26       13 1        
      28       27       15 1        
@<TRIPOS>SUBSTRUCTURE
 1 YZ9900 10 RESIDUE 4 A YZ9900 0 ROOT

