#        scan_R01_S0044_C0000_L00001_S0001_C0000_G0010_E0001.mol2
#        Mon Jun 19 14:42:04 2017
#        Descriptor:     31    33     4     3     1     7
#        Energy - RMSD - RMSD MassCentre:     -32.8024    999.9999    999.9999
#        Receptor:       1  Surface Point:    44  Conformer:     0
#        Ligand:         1  Surface Point:     1  Conformer:     0
#        BUDE Formal Charge: 0
#        ATOM Count: 27
#        Heavy ATOM Count: 17
@<TRIPOS>MOLECULE
pdb1gcz_ligA.pdb_scan_R01_S0044_C0000_L00001_S0001_C0000_G0010_E0001
27 28 1 0 0
SMALL
GASTEIGER
@<TRIPOS>ATOM
       1 C3         5.5663    0.7560    6.4493 C.3       1 YZ9900      0.0513 
       2 C11        4.8103   -0.5148    6.1858 C.3       1 YZ9900      0.2089 
       3 O1         2.0735    0.7181    7.8278 O.2       1 YZ9900     -0.2447 
       4 O2         3.7328   -0.6672    7.1941 O.3       1 YZ9900     -0.4453 
       5 C6        -1.2780    0.3720    3.8033 C.ar      1 YZ9900      0.0063 
       6 C5         0.5145    0.1275    5.5603 C.ar      1 YZ9900      0.0160 
       7 C4        -0.9047   -2.4506    3.0794 C.ar      1 YZ9900      0.0796 
       8 O3         0.7882   -2.5719    4.7848 O.2       1 YZ9900     -0.4208 
       9 C2        -0.3313   -0.4439    4.4673 C.ar      1 YZ9900      0.0353 
      10 C1        -0.1647   -1.8149    4.1013 C.ar      1 YZ9900      0.1519 
      11 C7         1.5910   -2.0746    5.6979 C.ar      1 YZ9900      0.3521 
      12 C12        2.4685   -0.1534    7.1146 C.2       1 YZ9900      0.3476 
      13 O4        -2.6046   -2.0759    1.4447 O.3       1 YZ9900     -0.2865 
      14 O5         2.3893   -2.7750    6.1785 O.2       1 YZ9900     -0.2442 
      15 C10       -2.0493   -0.2210    2.7618 C.ar      1 YZ9900      0.0422 
      16 C9         1.4879   -0.6667    6.1033 C.ar      1 YZ9900      0.1515 
      17 C8        -1.8457   -1.5815    2.4379 C.ar      1 YZ9900      0.1988 
      18 H31        4.8805    1.6024    6.4095 H         1 YZ9900      0.0000 
      19 H32        6.0256    0.7070    7.4367 H         1 YZ9900      0.0000 
      20 H33        6.3418    0.8806    5.6936 H         1 YZ9900      0.0000 
      21 H112       5.4916   -1.3631    6.2512 H         1 YZ9900      0.0000 
      22 H113       4.3719   -0.4768    5.1885 H         1 YZ9900      0.0000 
      23 H6        -1.4113    1.4082    4.0763 H         1 YZ9900      0.0000 
      24 H5         0.3617    1.1374    5.9110 H         1 YZ9900      0.0000 
      25 H4        -0.7740   -3.4879    2.8089 H         1 YZ9900      0.0000 
      26 HO4       -2.3142   -1.7090    0.6065 H         1 YZ9900      0.0000 
      27 H10       -2.7821    0.3636    2.2253 H         1 YZ9900      0.0000 
@<TRIPOS>BOND
       1       13       17 1        
       2        7       17 ar       
       3        7       10 ar       
       4        8       10 ar       
       5        8       11 ar       
       6       14       11 2        
       7       17       15 ar       
       8       10        9 ar       
       9       11       16 ar       
      10        2        4 1        
      11        2        1 1        
      12       15        5 ar       
      13        9        5 ar       
      14        9        6 ar       
      15       16        6 ar       
      16       16       12 1        
      17        4       12 1        
      18       12        3 2        
      19       18        1 1        
      20       19        1 1        
      21       20        1 1        
      22       21        2 1        
      23       22        2 1        
      24       23        5 1        
      25       24        6 1        
      26       25        7 1        
      27       26       13 1        
      28       27       15 1        
@<TRIPOS>SUBSTRUCTURE
 1 YZ9900 10 RESIDUE 4 A YZ9900 0 ROOT

