#        scan_R01_S0044_C0000_L00001_S0001_C0000_G0010_E0001.mol2
#        Mon Jun 19 14:13:53 2017
#        Descriptor:     23    28    36     3     3     4
#        Energy - RMSD - RMSD MassCentre:     -32.0690    999.9999    999.9999
#        Receptor:       1  Surface Point:    44  Conformer:     0
#        Ligand:         1  Surface Point:     1  Conformer:     0
#        BUDE Formal Charge: 0
#        ATOM Count: 27
#        Heavy ATOM Count: 17
@<TRIPOS>MOLECULE
pdb1gcz_ligA.pdb_scan_R01_S0044_C0000_L00001_S0001_C0000_G0010_E0001
27 28 1 0 0
SMALL
GASTEIGER
@<TRIPOS>ATOM
       1 C3         3.7223    4.2382   -0.8528 C.3       1 YZ9900      0.0513 
       2 C11        3.8496    3.2414    0.2634 C.3       1 YZ9900      0.2089 
       3 O1         1.0205    4.4692    1.7450 O.2       1 YZ9900     -0.2447 
       4 O2         3.1351    3.7466    1.4614 O.3       1 YZ9900     -0.4453 
       5 C6        -1.7163   -0.0089    1.6724 C.ar      1 YZ9900      0.0063 
       6 C5        -0.0227    1.8558    1.7939 C.ar      1 YZ9900      0.0160 
       7 C4         0.2085   -1.7959    2.9884 C.ar      1 YZ9900      0.0796 
       8 O3         1.7460    0.0536    3.0535 O.2       1 YZ9900     -0.4208 
       9 C2        -0.4320    0.4421    2.0595 C.ar      1 YZ9900      0.0353 
      10 C1         0.4903   -0.4421    2.6991 C.ar      1 YZ9900      0.1519 
      11 C7         2.1534    1.2691    2.7670 C.ar      1 YZ9900      0.3521 
      12 C12        1.8098    3.5740    1.7486 C.2       1 YZ9900      0.3476 
      13 O4        -1.4801   -3.4732    2.7940 O.3       1 YZ9900     -0.2865 
      14 O5         3.2389    1.5762    3.0605 O.2       1 YZ9900     -0.2442 
      15 C10       -2.0498   -1.3686    1.9397 C.ar      1 YZ9900      0.0422 
      16 C9         1.2628    2.2204    2.0894 C.ar      1 YZ9900      0.1515 
      17 C8        -1.1014   -2.2023    2.5744 C.ar      1 YZ9900      0.1988 
      18 H31        2.6679    4.4026   -1.0754 H         1 YZ9900      0.0000 
      19 H32        4.1810    5.1803   -0.5524 H         1 YZ9900      0.0000 
      20 H33        4.2258    3.8557   -1.7406 H         1 YZ9900      0.0000 
      21 H112       4.9031    3.0968    0.5029 H         1 YZ9900      0.0000 
      22 H113       3.4135    2.2915   -0.0460 H         1 YZ9900      0.0000 
      23 H6        -2.4196    0.6544    1.1912 H         1 YZ9900      0.0000 
      24 H5        -0.7213    2.5682    1.3808 H         1 YZ9900      0.0000 
      25 H4         0.9105   -2.4582    3.4731 H         1 YZ9900      0.0000 
      26 HO4       -1.5149   -3.9460    1.9593 H         1 YZ9900      0.0000 
      27 H10       -3.0176   -1.7579    1.6599 H         1 YZ9900      0.0000 
@<TRIPOS>BOND
       1       13       17 1        
       2        7       17 ar       
       3        7       10 ar       
       4        8       10 ar       
       5        8       11 ar       
       6       14       11 2        
       7       17       15 ar       
       8       10        9 ar       
       9       11       16 ar       
      10        2        4 1        
      11        2        1 1        
      12       15        5 ar       
      13        9        5 ar       
      14        9        6 ar       
      15       16        6 ar       
      16       16       12 1        
      17        4       12 1        
      18       12        3 2        
      19       18        1 1        
      20       19        1 1        
      21       20        1 1        
      22       21        2 1        
      23       22        2 1        
      24       23        5 1        
      25       24        6 1        
      26       25        7 1        
      27       26       13 1        
      28       27       15 1        
@<TRIPOS>SUBSTRUCTURE
 1 YZ9900 10 RESIDUE 4 A YZ9900 0 ROOT

