#        scan_R01_S0044_C0000_L00001_S0001_C0002_G0010_E0001.mol2
#        Mon Jun 19 14:42:05 2017
#        Descriptor:      9    24    32     3     1     6
#        Energy - RMSD - RMSD MassCentre:     -34.4207    999.9999    999.9999
#        Receptor:       1  Surface Point:    44  Conformer:     0
#        Ligand:         1  Surface Point:     1  Conformer:     2
#        BUDE Formal Charge: 0
#        ATOM Count: 27
#        Heavy ATOM Count: 17
@<TRIPOS>MOLECULE
pdb1gcz_ligA.pdb_scan_R01_S0044_C0000_L00001_S0001_C0002_G0010_E0001
27 28 1 0 0
SMALL
GASTEIGER
@<TRIPOS>ATOM
       1 C3         3.2915   -4.0857   10.3145 C.3       1 YZ9900      0.0513 
       2 C11        2.1827   -4.4856    9.3454 C.3       1 YZ9900      0.2089 
       3 O1         0.4644   -4.6750    7.3646 O.2       1 YZ9900     -0.2447 
       4 O2         2.1423   -3.5566    8.2590 O.3       1 YZ9900     -0.4453 
       5 C6        -0.7736   -2.1984    3.0258 C.ar      1 YZ9900      0.0063 
       6 C5         0.2292   -2.9844    5.1808 C.ar      1 YZ9900      0.0160 
       7 C4         1.0123   -0.0626    2.9246 C.ar      1 YZ9900      0.0796 
       8 O3         2.0161   -0.7736    4.9973 O.2       1 YZ9900     -0.4208 
       9 C2         0.1689   -2.0356    4.0466 C.ar      1 YZ9900      0.0353 
      10 C1         1.0663   -0.9623    3.9959 C.ar      1 YZ9900      0.1519 
      11 C7         2.0689   -1.6694    6.0627 C.ar      1 YZ9900      0.3521 
      12 C12        1.2175   -3.7499    7.2946 C.2       1 YZ9900      0.3476 
      13 O4         0.0570    0.6853    0.8725 O.3       1 YZ9900     -0.2865 
      14 O5         2.9081   -1.4859    6.9290 O.2       1 YZ9900     -0.2442 
      15 C10       -0.8232   -1.2958    1.9568 C.ar      1 YZ9900      0.0422 
      16 C9         1.1365   -2.8153    6.1499 C.ar      1 YZ9900      0.1515 
      17 C8         0.0714   -0.2206    1.9001 C.ar      1 YZ9900      0.1988 
      18 H31        3.0875   -3.0919   10.7079 H         1 YZ9900      0.0000 
      19 H32        3.3309   -4.8000   11.1341 H         1 YZ9900      0.0000 
      20 H33        4.2453   -4.0804    9.7910 H         1 YZ9900      0.0000 
      21 H112       1.2263   -4.4776    9.8642 H         1 YZ9900      0.0000 
      22 H113       2.3789   -5.4841    8.9608 H         1 YZ9900      0.0000 
      23 H6        -1.4691   -3.0240    3.0584 H         1 YZ9900      0.0000 
      24 H5        -0.4675   -3.8091    5.2109 H         1 YZ9900      0.0000 
      25 H4         1.7068    0.7638    2.8897 H         1 YZ9900      0.0000 
      26 HO4        0.7310    1.3705    1.0040 H         1 YZ9900      0.0000 
      27 H10       -1.5604   -1.4440    1.1816 H         1 YZ9900      0.0000 
@<TRIPOS>BOND
       1       13       17 1        
       2        7       17 ar       
       3        7       10 ar       
       4        8       10 ar       
       5        8       11 ar       
       6       14       11 2        
       7       17       15 ar       
       8       10        9 ar       
       9       11       16 ar       
      10        2        4 1        
      11        2        1 1        
      12       15        5 ar       
      13        9        5 ar       
      14        9        6 ar       
      15       16        6 ar       
      16       16       12 1        
      17        4       12 1        
      18       12        3 2        
      19       18        1 1        
      20       19        1 1        
      21       20        1 1        
      22       21        2 1        
      23       22        2 1        
      24       23        5 1        
      25       24        6 1        
      26       25        7 1        
      27       26       13 1        
      28       27       15 1        
@<TRIPOS>SUBSTRUCTURE
 1 YZ9900 10 RESIDUE 4 A YZ9900 0 ROOT

