#        scan_R01_S0044_C0000_L00001_S0001_C0002_G0010_E0001.mol2
#        Mon Jun 19 14:13:53 2017
#        Descriptor:     12    22    36     1     1     5
#        Energy - RMSD - RMSD MassCentre:     -35.3476    999.9999    999.9999
#        Receptor:       1  Surface Point:    44  Conformer:     0
#        Ligand:         1  Surface Point:     1  Conformer:     2
#        BUDE Formal Charge: 0
#        ATOM Count: 27
#        Heavy ATOM Count: 17
@<TRIPOS>MOLECULE
pdb1gcz_ligA.pdb_scan_R01_S0044_C0000_L00001_S0001_C0002_G0010_E0001
27 28 1 0 0
SMALL
GASTEIGER
@<TRIPOS>ATOM
       1 C3         4.3798   -1.8118    8.0044 C.3       1 YZ9900      0.0513 
       2 C11        3.1666   -2.6801    7.6838 C.3       1 YZ9900      0.2089 
       3 O1         0.9689   -3.7403    6.7050 O.2       1 YZ9900     -0.2447 
       4 O2         2.4253   -2.0859    6.6150 O.3       1 YZ9900     -0.4453 
       5 C6        -2.5455   -2.7712    3.0718 C.ar      1 YZ9900      0.0063 
       6 C5        -0.6004   -2.7470    4.6476 C.ar      1 YZ9900      0.0160 
       7 C4        -1.6939   -0.3833    1.9167 C.ar      1 YZ9900      0.0796 
       8 O3         0.1972   -0.3088    3.4092 O.2       1 YZ9900     -0.4208 
       9 C2        -1.3836   -2.1505    3.5426 C.ar      1 YZ9900      0.0353 
      10 C1        -0.9556   -0.9506    2.9622 C.ar      1 YZ9900      0.1519 
      11 C7         0.9309   -0.8743    4.4495 C.ar      1 YZ9900      0.3521 
      12 C12        1.3099   -2.7171    6.1905 C.2       1 YZ9900      0.3476 
      13 O4        -3.5463   -0.4069    0.4164 O.3       1 YZ9900     -0.2865 
      14 O5         1.9372   -0.2961    4.8257 O.2       1 YZ9900     -0.2442 
      15 C10       -3.2800   -2.1995    2.0260 C.ar      1 YZ9900      0.0422 
      16 C9         0.5091   -2.1414    5.0872 C.ar      1 YZ9900      0.1515 
      17 C8        -2.8574   -0.9998    1.4414 C.ar      1 YZ9900      0.1988 
      18 H31        4.0460   -0.8235    8.3138 H         1 YZ9900      0.0000 
      19 H32        4.9510   -2.2707    8.8086 H         1 YZ9900      0.0000 
      20 H33        5.0057   -1.7231    7.1189 H         1 YZ9900      0.0000 
      21 H112       2.5326   -2.7580    8.5645 H         1 YZ9900      0.0000 
      22 H113       3.4986   -3.6725    7.3862 H         1 YZ9900      0.0000 
      23 H6        -2.8818   -3.6970    3.5147 H         1 YZ9900      0.0000 
      24 H5        -0.9389   -3.6729    5.0887 H         1 YZ9900      0.0000 
      25 H4        -1.3597    0.5425    1.4720 H         1 YZ9900      0.0000 
      26 HO4       -3.1221    0.4229    0.1470 H         1 YZ9900      0.0000 
      27 H10       -4.1735   -2.6987    1.6811 H         1 YZ9900      0.0000 
@<TRIPOS>BOND
       1       13       17 1        
       2        7       17 ar       
       3        7       10 ar       
       4        8       10 ar       
       5        8       11 ar       
       6       14       11 2        
       7       17       15 ar       
       8       10        9 ar       
       9       11       16 ar       
      10        2        4 1        
      11        2        1 1        
      12       15        5 ar       
      13        9        5 ar       
      14        9        6 ar       
      15       16        6 ar       
      16       16       12 1        
      17        4       12 1        
      18       12        3 2        
      19       18        1 1        
      20       19        1 1        
      21       20        1 1        
      22       21        2 1        
      23       22        2 1        
      24       23        5 1        
      25       24        6 1        
      26       25        7 1        
      27       26       13 1        
      28       27       15 1        
@<TRIPOS>SUBSTRUCTURE
 1 YZ9900 10 RESIDUE 4 A YZ9900 0 ROOT

