#        1GCZ_R01_S0001_C0000_L00005_S0001_C0001_G0010_E0001.mol2
#        Tue Jun  6 14:05:34 2017
#        Descriptor:     11     5     5    12     8    14
#        Energy - RMSD - RMSD MassCentre:     -51.9951    999.9999    999.9999
#        Receptor:       1  Surface Point:     1  Conformer:     0
#        Ligand:         5  Surface Point:     1  Conformer:     1
#        BUDE Formal Charge: 0
#        ATOM Count: 55
#        Heavy ATOM Count: 30
@<TRIPOS>MOLECULE
ZINC61464195_1GCZ_R01_S0001_C0000_L00005_S0001_C0001_G0010_E0001
 55 56 0 0 0
SMALL
USER_CHARGES
@<TRIPOS>ATOM
       1 C1         0.2540    4.6140    6.5402 C.3       1 <0>        -0.1456 
       2 C2         1.0967    3.4401    6.0499 C.3       1 <0>        -0.0579 
       3 C3         2.5680    3.7065    6.3548 C.3       1 <0>        -0.1456 
       4 C4         0.6583    2.1783    6.7539 C.ar      1 <0>        -0.0771 
       5 C5         0.1645    1.1220    5.9792 C.ar      1 <0>        -0.0943 
       6 C6        -0.1570   -0.0970    6.5880 C.ar      1 <0>        -0.0923 
       7 C7         0.0175   -0.2709    7.9660 C.ar      1 <0>        -0.1041 
       8 C8         0.4608    0.7960    8.7566 C.ar      1 <0>        -0.1315 
       9 C9         0.7477    2.0224    8.1454 C.ar      1 <0>        -0.0969 
      10 S1        -0.3311   -1.8415    8.7042 S.3       1 <0>        -0.0341 
      11 C10        1.1738   -2.8648    8.6898 C.3       1 <0>        -0.1267 
      12 C11        1.6194   -3.0830    7.2636 C.2       1 <0>         0.4864 
      13 O1         1.3818   -4.1171    6.7141 O.2       1 <0>        -0.4815 
      14 O2         2.2867   -2.1091    6.6089 O.3       1 <0>        -0.3231 
      15 C12        2.6883   -2.3614    5.2599 C.3       1 <0>         0.0526 
      16 C13        3.4140   -1.1534    4.7174 C.2       1 <0>         0.5250 
      17 O3         2.9926   -0.5835    3.7121 O.2       1 <0>        -0.5082 
      18 N1         4.5083   -0.7053    5.3258 N.am      1 <0>        -0.5981 
      19 C14        5.0119   -1.3863    6.5273 C.3       1 <0>         0.0731 
      20 C15        5.2136    0.4709    4.7963 C.3       1 <0>         0.1010 
      21 C16        6.7025    0.2214    4.8307 C.2       1 <0>         0.4997 
      22 O4         7.4513    1.0427    5.3576 O.2       1 <0>        -0.5061 
      23 N2         7.2034   -0.8862    4.2910 N.am      1 <0>        -0.6702 
      24 C17        8.5986   -1.1199    4.3232 C.ar      1 <0>         0.1553 
      25 C18        9.2502   -1.6248    3.1917 C.ar      1 <0>        -0.1106 
      26 C19       10.6318   -1.8477    3.2258 C.ar      1 <0>        -0.0959 
      27 C20       11.3606   -1.5760    4.3871 C.ar      1 <0>        -0.1208 
      28 C21       10.7077   -1.0839    5.5236 C.ar      1 <0>        -0.0919 
      29 C22        9.3274   -0.8531    5.4884 C.ar      1 <0>        -0.0639 
      30 Cl1        8.5116   -0.2452    6.9000 Cl        1 <0>        -0.0632 
      31 H1         0.3974    4.7402    7.6113 H         1 <0>         0.0596 
      32 H2         0.5610    5.5208    6.0232 H         1 <0>         0.0563 
      33 H3        -0.7961    4.4166    6.3350 H         1 <0>         0.0575 
      34 H4         0.9639    3.3206    4.9768 H         1 <0>         0.0784 
      35 H5         3.1689    2.8746    5.9937 H         1 <0>         0.0596 
      36 H6         2.7017    3.8117    7.4295 H         1 <0>         0.0574 
      37 H7         2.8804    4.6230    5.8584 H         1 <0>         0.0563 
      38 H8         0.0410    1.2255    4.9113 H         1 <0>         0.1285 
      39 H9        -0.5364   -0.9421    6.0328 H         1 <0>         0.1293 
      40 H10        0.5727    0.6527    9.8211 H         1 <0>         0.1227 
      41 H11        1.0541    2.8448    8.7747 H         1 <0>         0.1262 
      42 H12        1.9628   -2.3586    9.2421 H         1 <0>         0.1329 
      43 H13        0.9641   -3.8260    9.1546 H         1 <0>         0.1329 
      44 H14        1.8093   -2.5597    4.6502 H         1 <0>         0.1063 
      45 H15        3.3509   -3.2239    5.2333 H         1 <0>         0.1054 
      46 H16        5.2623   -2.4161    6.2814 H         1 <0>         0.0686 
      47 H17        5.9001   -0.8727    6.8890 H         1 <0>         0.0794 
      48 H18        4.2450   -1.3733    7.2990 H         1 <0>         0.0778 
      49 H19        4.8989    0.6503    3.7704 H         1 <0>         0.1198 
      50 H20        4.9767    1.3401    5.4064 H         1 <0>         0.1233 
      51 H21        6.5876   -1.5600    3.8586 H         1 <0>         0.4142 
      52 H22        8.6926   -1.8370    2.2913 H         1 <0>         0.1473 
      53 H23       11.1339   -2.2301    2.3493 H         1 <0>         0.1337 
      54 H24       12.4269   -1.7445    4.4116 H         1 <0>         0.1349 
      55 H25       11.2683   -0.8797    6.4238 H         1 <0>         0.1385 
@<TRIPOS>BOND
       1        1        2 1        
       2        1       31 1        
       3        1       32 1        
       4        1       33 1        
       5        2        3 1        
       6        2        4 1        
       7        2       34 1        
       8        3       35 1        
       9        3       36 1        
      10        3       37 1        
      11        4        9 ar       
      12        4        5 ar       
      13        5        6 ar       
      14        5       38 1        
      15        6        7 ar       
      16        6       39 1        
      17        7        8 ar       
      18        7       10 1        
      19        8        9 ar       
      20        8       40 1        
      21        9       41 1        
      22       10       11 1        
      23       11       12 1        
      24       11       42 1        
      25       11       43 1        
      26       12       13 2        
      27       12       14 1        
      28       14       15 1        
      29       15       16 1        
      30       15       44 1        
      31       15       45 1        
      32       16       17 2        
      33       16       18 am       
      34       18       19 1        
      35       18       20 1        
      36       19       46 1        
      37       19       47 1        
      38       19       48 1        
      39       20       21 1        
      40       20       49 1        
      41       20       50 1        
      42       21       22 2        
      43       21       23 am       
      44       23       24 1        
      45       23       51 1        
      46       24       29 ar       
      47       24       25 ar       
      48       25       26 ar       
      49       25       52 1        
      50       26       27 ar       
      51       26       53 1        
      52       27       28 ar       
      53       27       54 1        
      54       28       29 ar       
      55       28       55 1        
      56       29       30 1        

