#        scan_R01_S0044_C0000_L00001_S0001_C0003_G0010_E0001.mol2
#        Mon Jun 19 14:42:06 2017
#        Descriptor:     22    24    27     3     1     5
#        Energy - RMSD - RMSD MassCentre:     -34.5127    999.9999    999.9999
#        Receptor:       1  Surface Point:    44  Conformer:     0
#        Ligand:         1  Surface Point:     1  Conformer:     3
#        BUDE Formal Charge: 0
#        ATOM Count: 27
#        Heavy ATOM Count: 17
@<TRIPOS>MOLECULE
pdb1gcz_ligA.pdb_scan_R01_S0044_C0000_L00001_S0001_C0003_G0010_E0001
27 28 1 0 0
SMALL
GASTEIGER
@<TRIPOS>ATOM
       1 C3         3.6990   -3.0153    9.1380 C.3       1 YZ9900      0.0513 
       2 C11        2.1877   -2.8051    9.1198 C.3       1 YZ9900      0.2089 
       3 O1         3.0246   -0.8443    7.5815 O.2       1 YZ9900     -0.2447 
       4 O2         1.7474   -2.6330    7.7702 O.3       1 YZ9900     -0.4453 
       5 C6         2.3401    0.9218    2.7957 C.ar      1 YZ9900      0.0063 
       6 C5         2.2934   -0.3438    4.9552 C.ar      1 YZ9900      0.0160 
       7 C4         0.5149   -0.8543    1.6663 C.ar      1 YZ9900      0.0796 
       8 O3         0.4308   -2.1109    3.7213 O.2       1 YZ9900     -0.4208 
       9 C2         1.8519   -0.1458    3.5566 C.ar      1 YZ9900      0.0353 
      10 C1         0.9348   -1.0383    2.9891 C.ar      1 YZ9900      0.1519 
      11 C7         0.8494   -2.2930    5.0373 C.ar      1 YZ9900      0.3521 
      12 C12        2.2429   -1.5899    7.0707 C.2       1 YZ9900      0.3476 
      13 O4         0.5598    0.3513   -0.3898 O.3       1 YZ9900     -0.2865 
      14 O5         0.3958   -3.2385    5.6608 O.2       1 YZ9900     -0.2442 
      15 C10        1.9168    1.1012    1.4733 C.ar      1 YZ9900      0.0422 
      16 C9         1.8175   -1.3699    5.6704 C.ar      1 YZ9900      0.1515 
      17 C8         0.9999    0.2122    0.9001 C.ar      1 YZ9900      0.1988 
      18 H31        4.1911   -2.1416    8.7157 H         1 YZ9900      0.0000 
      19 H32        4.0321   -3.1596   10.1636 H         1 YZ9900      0.0000 
      20 H33        3.9494   -3.8942    8.5477 H         1 YZ9900      0.0000 
      21 H112       1.9372   -1.9184    9.6982 H         1 YZ9900      0.0000 
      22 H113       1.6950   -3.6729    9.5533 H         1 YZ9900      0.0000 
      23 H6         3.0478    1.6143    3.2269 H         1 YZ9900      0.0000 
      24 H5         3.0012    0.3502    5.3839 H         1 YZ9900      0.0000 
      25 H4        -0.1929   -1.5455    1.2328 H         1 YZ9900      0.0000 
      26 HO4       -0.0561   -0.3602   -0.6253 H         1 YZ9900      0.0000 
      27 H10        2.3088    1.9334    0.9076 H         1 YZ9900      0.0000 
@<TRIPOS>BOND
       1       13       17 1        
       2        7       17 ar       
       3        7       10 ar       
       4        8       10 ar       
       5        8       11 ar       
       6       14       11 2        
       7       17       15 ar       
       8       10        9 ar       
       9       11       16 ar       
      10        2        4 1        
      11        2        1 1        
      12       15        5 ar       
      13        9        5 ar       
      14        9        6 ar       
      15       16        6 ar       
      16       16       12 1        
      17        4       12 1        
      18       12        3 2        
      19       18        1 1        
      20       19        1 1        
      21       20        1 1        
      22       21        2 1        
      23       22        2 1        
      24       23        5 1        
      25       24        6 1        
      26       25        7 1        
      27       26       13 1        
      28       27       15 1        
@<TRIPOS>SUBSTRUCTURE
 1 YZ9900 10 RESIDUE 4 A YZ9900 0 ROOT

