#        scan_R01_S0044_C0000_L00001_S0001_C0003_G0010_E0001.mol2
#        Mon Jun 19 14:13:54 2017
#        Descriptor:     11    22     1     1     1     5
#        Energy - RMSD - RMSD MassCentre:     -34.4579    999.9999    999.9999
#        Receptor:       1  Surface Point:    44  Conformer:     0
#        Ligand:         1  Surface Point:     1  Conformer:     3
#        BUDE Formal Charge: 0
#        ATOM Count: 27
#        Heavy ATOM Count: 17
@<TRIPOS>MOLECULE
pdb1gcz_ligA.pdb_scan_R01_S0044_C0000_L00001_S0001_C0003_G0010_E0001
27 28 1 0 0
SMALL
GASTEIGER
@<TRIPOS>ATOM
       1 C3         2.8277   -2.5255    8.6606 C.3       1 YZ9900      0.0513 
       2 C11        3.6115   -2.0274    7.4497 C.3       1 YZ9900      0.2089 
       3 O1         1.7714   -3.5289    6.3222 O.2       1 YZ9900     -0.2447 
       4 O2         2.7009   -1.5334    6.4639 O.3       1 YZ9900     -0.4453 
       5 C6        -1.9828   -3.1293    2.8240 C.ar      1 YZ9900      0.0063 
       6 C5        -0.0757   -2.7613    4.4035 C.ar      1 YZ9900      0.0160 
       7 C4        -1.8719   -0.4694    2.0032 C.ar      1 YZ9900      0.0796 
       8 O3        -0.0333   -0.0580    3.5064 O.2       1 YZ9900     -0.4208 
       9 C2        -1.0282   -2.2723    3.3818 C.ar      1 YZ9900      0.0353 
      10 C1        -0.9724   -0.9356    2.9694 C.ar      1 YZ9900      0.1519 
      11 C7         0.8611   -0.5230    4.4677 C.ar      1 YZ9900      0.3521 
      12 C12        1.7954   -2.3934    5.9509 C.2       1 YZ9900      0.3476 
      13 O4        -3.6879   -0.8204    0.4993 O.3       1 YZ9900     -0.2865 
      14 O5         1.6754    0.2619    4.9251 O.2       1 YZ9900     -0.2442 
      15 C10       -2.8798   -2.6578    1.8580 C.ar      1 YZ9900      0.0422 
      16 C9         0.8318   -1.9293    4.9280 C.ar      1 YZ9900      0.1515 
      17 C8        -2.8292   -1.3223    1.4414 C.ar      1 YZ9900      0.1988 
      18 H31        2.1659   -3.3336    8.3560 H         1 YZ9900      0.0000 
      19 H32        3.5211   -2.8889    9.4161 H         1 YZ9900      0.0000 
      20 H33        2.2384   -1.7085    9.0715 H         1 YZ9900      0.0000 
      21 H112       4.1904   -2.8470    7.0294 H         1 YZ9900      0.0000 
      22 H113       4.2828   -1.2277    7.7554 H         1 YZ9900      0.0000 
      23 H6        -2.0317   -4.1617    3.1373 H         1 YZ9900      0.0000 
      24 H5        -0.1268   -3.7942    4.7150 H         1 YZ9900      0.0000 
      25 H4        -1.8249    0.5627    1.6881 H         1 YZ9900      0.0000 
      26 HO4       -3.5222    0.1230    0.3458 H         1 YZ9900      0.0000 
      27 H10       -3.6071   -3.3400    1.4431 H         1 YZ9900      0.0000 
@<TRIPOS>BOND
       1       13       17 1        
       2        7       17 ar       
       3        7       10 ar       
       4        8       10 ar       
       5        8       11 ar       
       6       14       11 2        
       7       17       15 ar       
       8       10        9 ar       
       9       11       16 ar       
      10        2        4 1        
      11        2        1 1        
      12       15        5 ar       
      13        9        5 ar       
      14        9        6 ar       
      15       16        6 ar       
      16       16       12 1        
      17        4       12 1        
      18       12        3 2        
      19       18        1 1        
      20       19        1 1        
      21       20        1 1        
      22       21        2 1        
      23       22        2 1        
      24       23        5 1        
      25       24        6 1        
      26       25        7 1        
      27       26       13 1        
      28       27       15 1        
@<TRIPOS>SUBSTRUCTURE
 1 YZ9900 10 RESIDUE 4 A YZ9900 0 ROOT

