#        scan_R01_S0045_C0000_L00001_S0001_C0000_G0010_E0001.mol2
#        Mon Jun 19 14:13:54 2017
#        Descriptor:     34    20    13     3     2     2
#        Energy - RMSD - RMSD MassCentre:     -68.7190    999.9999    999.9999
#        Receptor:       1  Surface Point:    45  Conformer:     0
#        Ligand:         1  Surface Point:     1  Conformer:     0
#        BUDE Formal Charge: 0
#        ATOM Count: 27
#        Heavy ATOM Count: 17
@<TRIPOS>MOLECULE
pdb1gcz_ligA.pdb_scan_R01_S0045_C0000_L00001_S0001_C0000_G0010_E0001
27 28 1 0 0
SMALL
GASTEIGER
@<TRIPOS>ATOM
       1 C3         4.8995    0.2708   -3.2796 C.3       1 YZ9900      0.0513 
       2 C11        4.4474    0.7458   -1.9284 C.3       1 YZ9900      0.2089 
       3 O1         1.3270    1.4211   -3.1582 O.2       1 YZ9900     -0.2447 
       4 O2         3.2939    1.6649   -2.0879 O.3       1 YZ9900     -0.4453 
       5 C6        -1.3180   -1.7682    0.0638 C.ar      1 YZ9900      0.0063 
       6 C5         0.2335   -0.1560   -1.0996 C.ar      1 YZ9900      0.0160 
       7 C4        -0.3091   -0.8161    2.6534 C.ar      1 YZ9900      0.0796 
       8 O3         1.1286    0.6846    1.4411 O.2       1 YZ9900     -0.4208 
       9 C2        -0.3295   -0.7589    0.1479 C.ar      1 YZ9900      0.0353 
      10 C1         0.1482   -0.3085    1.4169 C.ar      1 YZ9900      0.1519 
      11 C7         1.6886    1.1779    0.3601 C.ar      1 YZ9900      0.3521 
      12 C12        1.9764    1.3079   -2.1634 C.2       1 YZ9900      0.3476 
      13 O4        -1.8125   -2.3973    3.6240 O.3       1 YZ9900     -0.2865 
      14 O5         2.5353    1.9694    0.4833 O.2       1 YZ9900     -0.2442 
      15 C10       -1.8115   -2.3158    1.2837 C.ar      1 YZ9900      0.0422 
      16 C9         1.2601    0.7404   -0.9749 C.ar      1 YZ9900      0.1515 
      17 C8        -1.3056   -1.8358    2.5129 C.ar      1 YZ9900      0.1988 
      18 H31        4.0742   -0.2327   -3.7832 H         1 YZ9900      0.0000 
      19 H32        5.2218    1.1247   -3.8755 H         1 YZ9900      0.0000 
      20 H33        5.7309   -0.4240   -3.1609 H         1 YZ9900      0.0000 
      21 H112       5.2654    1.2716   -1.4358 H         1 YZ9900      0.0000 
      22 H113       4.1490   -0.1103   -1.3232 H         1 YZ9900      0.0000 
      23 H6        -1.6858   -2.1116   -0.8916 H         1 YZ9900      0.0000 
      24 H5        -0.1585   -0.4203   -2.0705 H         1 YZ9900      0.0000 
      25 H4         0.0560   -0.4700    3.6091 H         1 YZ9900      0.0000 
      26 HO4       -1.4883   -3.2973    3.7048 H         1 YZ9900      0.0000 
      27 H10       -2.5645   -3.0899    1.2688 H         1 YZ9900      0.0000 
@<TRIPOS>BOND
       1       13       17 1        
       2        7       17 ar       
       3        7       10 ar       
       4        8       10 ar       
       5        8       11 ar       
       6       14       11 2        
       7       17       15 ar       
       8       10        9 ar       
       9       11       16 ar       
      10        2        4 1        
      11        2        1 1        
      12       15        5 ar       
      13        9        5 ar       
      14        9        6 ar       
      15       16        6 ar       
      16       16       12 1        
      17        4       12 1        
      18       12        3 2        
      19       18        1 1        
      20       19        1 1        
      21       20        1 1        
      22       21        2 1        
      23       22        2 1        
      24       23        5 1        
      25       24        6 1        
      26       25        7 1        
      27       26       13 1        
      28       27       15 1        
@<TRIPOS>SUBSTRUCTURE
 1 YZ9900 10 RESIDUE 4 A YZ9900 0 ROOT

