#        scan_R01_S0045_C0000_L00001_S0001_C0002_G0010_E0001.mol2
#        Mon Jun 19 14:42:07 2017
#        Descriptor:     33     7    20     3     3     2
#        Energy - RMSD - RMSD MassCentre:     -78.4355    999.9999    999.9999
#        Receptor:       1  Surface Point:    45  Conformer:     0
#        Ligand:         1  Surface Point:     1  Conformer:     2
#        BUDE Formal Charge: 0
#        ATOM Count: 27
#        Heavy ATOM Count: 17
@<TRIPOS>MOLECULE
pdb1gcz_ligA.pdb_scan_R01_S0045_C0000_L00001_S0001_C0002_G0010_E0001
27 28 1 0 0
SMALL
GASTEIGER
@<TRIPOS>ATOM
       1 C3         4.1802    1.6091   -6.6453 C.3       1 YZ9900      0.0513 
       2 C11        4.7730    1.3089   -5.2717 C.3       1 YZ9900      0.2089 
       3 O1         5.2054    0.8419   -2.7208 O.2       1 YZ9900     -0.2447 
       4 O2         3.7282    1.2941   -4.2954 O.3       1 YZ9900     -0.4453 
       5 C6         2.5634    0.4946    1.6826 C.ar      1 YZ9900      0.0063 
       6 C5         3.3244    0.7709   -0.6863 C.ar      1 YZ9900      0.0160 
       7 C4        -0.0775    0.9719    0.9347 C.ar      1 YZ9900      0.0796 
       8 O3         0.5986    1.2482   -1.3622 O.2       1 YZ9900     -0.4208 
       9 C2         2.2596    0.7504    0.3413 C.ar      1 YZ9900      0.0353 
      10 C1         0.9326    0.9904   -0.0346 C.ar      1 YZ9900      0.1519 
      11 C7         1.6044    1.2663   -2.3258 C.ar      1 YZ9900      0.3521 
      12 C12        4.0641    1.0432   -3.0121 C.2       1 YZ9900      0.3476 
      13 O4        -0.8015    0.7087    3.1906 O.3       1 YZ9900     -0.2865 
      14 O5         1.2905    1.4940   -3.4825 O.2       1 YZ9900     -0.2442 
      15 C10        1.5494    0.4773    2.6478 C.ar      1 YZ9900      0.0422 
      16 C9         3.0181    1.0172   -1.9655 C.ar      1 YZ9900      0.1515 
      17 C8         0.2205    0.7164    2.2784 C.ar      1 YZ9900      0.1988 
      18 H31        3.7010    2.5859   -6.6272 H         1 YZ9900      0.0000 
      19 H32        4.9733    1.6073   -7.3900 H         1 YZ9900      0.0000 
      20 H33        3.4444    0.8481   -6.8963 H         1 YZ9900      0.0000 
      21 H112       5.4989    2.0772   -5.0133 H         1 YZ9900      0.0000 
      22 H113       5.2634    0.3380   -5.2919 H         1 YZ9900      0.0000 
      23 H6         3.5849    0.3087    1.9800 H         1 YZ9900      0.0000 
      24 H5         4.3450    0.5846   -0.3862 H         1 YZ9900      0.0000 
      25 H4        -1.0998    1.1575    0.6398 H         1 YZ9900      0.0000 
      26 HO4       -1.6493    0.9100    2.7642 H         1 YZ9900      0.0000 
      27 H10        1.8106    0.2773    3.6765 H         1 YZ9900      0.0000 
@<TRIPOS>BOND
       1       13       17 1        
       2        7       17 ar       
       3        7       10 ar       
       4        8       10 ar       
       5        8       11 ar       
       6       14       11 2        
       7       17       15 ar       
       8       10        9 ar       
       9       11       16 ar       
      10        2        4 1        
      11        2        1 1        
      12       15        5 ar       
      13        9        5 ar       
      14        9        6 ar       
      15       16        6 ar       
      16       16       12 1        
      17        4       12 1        
      18       12        3 2        
      19       18        1 1        
      20       19        1 1        
      21       20        1 1        
      22       21        2 1        
      23       22        2 1        
      24       23        5 1        
      25       24        6 1        
      26       25        7 1        
      27       26       13 1        
      28       27       15 1        
@<TRIPOS>SUBSTRUCTURE
 1 YZ9900 10 RESIDUE 4 A YZ9900 0 ROOT

