#        1GCZ_R01_S0001_C0000_L00005_S0001_C0002_G0010_E0001.mol2
#        Tue Jun  6 09:55:30 2017
#        Descriptor:     32    33     4     9     7    14
#        Energy - RMSD - RMSD MassCentre:     -57.2319    999.9999    999.9999
#        Receptor:       1  Surface Point:     1  Conformer:     0
#        Ligand:         5  Surface Point:     1  Conformer:     2
#        BUDE Formal Charge: 0
#        ATOM Count: 55
#        Heavy ATOM Count: 30
@<TRIPOS>MOLECULE
ZINC61464195_1GCZ_R01_S0001_C0000_L00005_S0001_C0002_G0010_E0001
 55 56 0 0 0
SMALL
USER_CHARGES
@<TRIPOS>ATOM
       1 C1         0.0324    1.4668   -0.3734 C.3       1 <0>        -0.1456 
       2 C2        -0.8651    0.2838   -0.0220 C.3       1 <0>        -0.0579 
       3 C3        -0.2647   -0.9982   -0.5918 C.3       1 <0>        -0.1456 
       4 C4        -0.9733    0.1637    1.4792 C.ar      1 <0>        -0.0771 
       5 C5        -2.2389    0.2807    2.0660 C.ar      1 <0>        -0.0943 
       6 C6        -2.3898    0.0756    3.4426 C.ar      1 <0>        -0.0923 
       7 C7        -1.2850   -0.2522    4.2375 C.ar      1 <0>        -0.1041 
       8 C8        -0.0077   -0.3198    3.6687 C.ar      1 <0>        -0.1315 
       9 C9         0.1400   -0.0797    2.2975 C.ar      1 <0>        -0.0969 
      10 S1        -1.5094   -0.5736    5.9636 S.3       1 <0>        -0.0341 
      11 C10       -1.8338   -2.3472    6.2122 C.3       1 <0>        -0.1267 
      12 C11       -2.0252   -2.6214    7.6847 C.2       1 <0>         0.4864 
      13 O1        -3.1257   -2.7572    8.1299 O.2       1 <0>        -0.4815 
      14 O2        -0.9523   -2.7130    8.4988 O.3       1 <0>        -0.3231 
      15 C12       -1.1830   -2.9739    9.8858 C.3       1 <0>         0.0526 
      16 C13        0.1395   -3.0371   10.6119 C.2       1 <0>         0.5250 
      17 O3         0.4558   -4.0553   11.2251 O.2       1 <0>        -0.5082 
      18 N1         0.9624   -1.9926   10.5888 N.am      1 <0>        -0.5981 
      19 C14        0.5844   -0.7758    9.8558 C.3       1 <0>         0.0731 
      20 C15        2.2494   -2.0559   11.2963 C.3       1 <0>         0.1010 
      21 C16        3.3292   -1.4527   10.4299 C.2       1 <0>         0.4997 
      22 O4         4.0659   -0.5793   10.8849 O.2       1 <0>        -0.5061 
      23 N2         3.4829   -1.8664    9.1752 N.am      1 <0>        -0.6702 
      24 C17        4.4947   -1.3013    8.3634 C.ar      1 <0>         0.1553 
      25 C18        4.2214   -0.9749    7.0298 C.ar      1 <0>        -0.1106 
      26 C19        5.2234   -0.4092    6.2323 C.ar      1 <0>        -0.0959 
      27 C20        6.4966   -0.1775    6.7603 C.ar      1 <0>        -0.1208 
      28 C21        6.7750   -0.5161    8.0899 C.ar      1 <0>        -0.0919 
      29 C22        5.7715   -1.0744    8.8908 C.ar      1 <0>        -0.0639 
      30 Cl1        6.1146   -1.5004   10.5426 Cl        1 <0>        -0.0632 
      31 H1         1.0256    1.3028    0.0394 H         1 <0>         0.0596 
      32 H2         0.0998    1.5615   -1.4553 H         1 <0>         0.0563 
      33 H3        -0.3892    2.3782    0.0455 H         1 <0>         0.0575 
      34 H4        -1.8551    0.4407   -0.4449 H         1 <0>         0.0784 
      35 H5        -0.9119   -1.8390   -0.3515 H         1 <0>         0.0596 
      36 H6         0.7194   -1.1614   -0.1576 H         1 <0>         0.0574 
      37 H7        -0.1744   -0.9065   -1.6723 H         1 <0>         0.0563 
      38 H8        -3.1093    0.5121    1.4701 H         1 <0>         0.1285 
      39 H9        -3.3454    0.1499    3.9404 H         1 <0>         0.1293 
      40 H10        0.8380   -0.5552    4.2979 H         1 <0>         0.1227 
      41 H11        1.1366   -0.1006    1.8820 H         1 <0>         0.1262 
      42 H12       -2.7340   -2.6313    5.6711 H         1 <0>         0.1329 
      43 H13       -0.9899   -2.9262    5.8429 H         1 <0>         0.1329 
      44 H14       -1.7019   -3.9239    9.9954 H         1 <0>         0.1063 
      45 H15       -1.7907   -2.1770   10.3092 H         1 <0>         0.1054 
      46 H16       -0.3310   -0.3678   10.2793 H         1 <0>         0.0686 
      47 H17        1.3822   -0.0408    9.9387 H         1 <0>         0.0794 
      48 H18        0.4226   -1.0199    8.8080 H         1 <0>         0.0778 
      49 H19        2.1781   -1.4988   12.2281 H         1 <0>         0.1198 
      50 H20        2.4938   -3.0940   11.5113 H         1 <0>         0.1233 
      51 H21        2.8774   -2.5838    8.8026 H         1 <0>         0.4142 
      52 H22        3.2396   -1.1519    6.6157 H         1 <0>         0.1473 
      53 H23        5.0083   -0.1511    5.2057 H         1 <0>         0.1337 
      54 H24        7.2681    0.2624    6.1458 H         1 <0>         0.1349 
      55 H25        7.7601   -0.3437    8.4975 H         1 <0>         0.1385 
@<TRIPOS>BOND
       1        1        2 1        
       2        1       31 1        
       3        1       32 1        
       4        1       33 1        
       5        2        3 1        
       6        2        4 1        
       7        2       34 1        
       8        3       35 1        
       9        3       36 1        
      10        3       37 1        
      11        4        9 ar       
      12        4        5 ar       
      13        5        6 ar       
      14        5       38 1        
      15        6        7 ar       
      16        6       39 1        
      17        7        8 ar       
      18        7       10 1        
      19        8        9 ar       
      20        8       40 1        
      21        9       41 1        
      22       10       11 1        
      23       11       12 1        
      24       11       42 1        
      25       11       43 1        
      26       12       13 2        
      27       12       14 1        
      28       14       15 1        
      29       15       16 1        
      30       15       44 1        
      31       15       45 1        
      32       16       17 2        
      33       16       18 am       
      34       18       19 1        
      35       18       20 1        
      36       19       46 1        
      37       19       47 1        
      38       19       48 1        
      39       20       21 1        
      40       20       49 1        
      41       20       50 1        
      42       21       22 2        
      43       21       23 am       
      44       23       24 1        
      45       23       51 1        
      46       24       29 ar       
      47       24       25 ar       
      48       25       26 ar       
      49       25       52 1        
      50       26       27 ar       
      51       26       53 1        
      52       27       28 ar       
      53       27       54 1        
      54       28       29 ar       
      55       28       55 1        
      56       29       30 1        

