#        scan_R01_S0046_C0000_L00001_S0001_C0000_G0010_E0001.mol2
#        Mon Jun 19 14:13:57 2017
#        Descriptor:     16    27     8     2     1     3
#        Energy - RMSD - RMSD MassCentre:     -33.5867    999.9999    999.9999
#        Receptor:       1  Surface Point:    46  Conformer:     0
#        Ligand:         1  Surface Point:     1  Conformer:     0
#        BUDE Formal Charge: 0
#        ATOM Count: 27
#        Heavy ATOM Count: 17
@<TRIPOS>MOLECULE
pdb1gcz_ligA.pdb_scan_R01_S0046_C0000_L00001_S0001_C0000_G0010_E0001
27 28 1 0 0
SMALL
GASTEIGER
@<TRIPOS>ATOM
       1 C3        -3.5118   -2.7116   -2.2822 C.3       1 YZ9900      0.0513 
       2 C11       -3.2899   -1.6887   -1.2050 C.3       1 YZ9900      0.2089 
       3 O1        -1.7137   -4.0164    0.7453 O.2       1 YZ9900     -0.2447 
       4 O2        -3.1133   -2.3741    0.0988 O.3       1 YZ9900     -0.4453 
       5 C6         2.8704   -1.4922    1.1491 C.ar      1 YZ9900      0.0063 
       6 C5         0.4754   -2.2626    0.9746 C.ar      1 YZ9900      0.0160 
       7 C4         1.9243    1.1174    2.1108 C.ar      1 YZ9900      0.0796 
       8 O3        -0.3215    0.2784    1.9080 O.2       1 YZ9900     -0.4208 
       9 C2         1.4913   -1.2167    1.3073 C.ar      1 YZ9900      0.0353 
      10 C1         1.0506    0.0586    1.7770 C.ar      1 YZ9900      0.1519 
      11 C7        -1.2337   -0.5985    1.5551 C.ar      1 YZ9900      0.3521 
      12 C12       -1.9398   -2.8523    0.6118 C.2       1 YZ9900      0.3476 
      13 O4         4.2324    1.7216    2.2126 O.3       1 YZ9900     -0.2865 
      14 O5        -2.3571   -0.3044    1.6556 O.2       1 YZ9900     -0.2442 
      15 C10        3.7944   -0.4557    1.4702 C.ar      1 YZ9900      0.0422 
      16 C9        -0.8478   -1.9197    1.0424 C.ar      1 YZ9900      0.1515 
      17 C8         3.3070    0.7884    1.9306 C.ar      1 YZ9900      0.1988 
      18 H31       -2.6613   -3.3925   -2.3183 H         1 YZ9900      0.0000 
      19 H32       -4.4193   -3.2755   -2.0660 H         1 YZ9900      0.0000 
      20 H33       -3.6165   -2.2095   -3.2439 H         1 YZ9900      0.0000 
      21 H112      -4.1521   -1.0240   -1.1521 H         1 YZ9900      0.0000 
      22 H113      -2.3965   -1.1077   -1.4340 H         1 YZ9900      0.0000 
      23 H6         3.2109   -2.4547    0.7973 H         1 YZ9900      0.0000 
      24 H5         0.7771   -3.2595    0.6891 H         1 YZ9900      0.0000 
      25 H4         1.5839    2.0787    2.4663 H         1 YZ9900      0.0000 
      26 HO4        4.6240    2.0415    1.3966 H         1 YZ9900      0.0000 
      27 H10        4.8566   -0.6194    1.3627 H         1 YZ9900      0.0000 
@<TRIPOS>BOND
       1       13       17 1        
       2        7       17 ar       
       3        7       10 ar       
       4        8       10 ar       
       5        8       11 ar       
       6       14       11 2        
       7       17       15 ar       
       8       10        9 ar       
       9       11       16 ar       
      10        2        4 1        
      11        2        1 1        
      12       15        5 ar       
      13        9        5 ar       
      14        9        6 ar       
      15       16        6 ar       
      16       16       12 1        
      17        4       12 1        
      18       12        3 2        
      19       18        1 1        
      20       19        1 1        
      21       20        1 1        
      22       21        2 1        
      23       22        2 1        
      24       23        5 1        
      25       24        6 1        
      26       25        7 1        
      27       26       13 1        
      28       27       15 1        
@<TRIPOS>SUBSTRUCTURE
 1 YZ9900 10 RESIDUE 4 A YZ9900 0 ROOT

