#        scan_R01_S0046_C0000_L00001_S0001_C0003_G0010_E0001.mol2
#        Mon Jun 19 14:42:09 2017
#        Descriptor:     18    36     4     3     1     5
#        Energy - RMSD - RMSD MassCentre:     -32.9483    999.9999    999.9999
#        Receptor:       1  Surface Point:    46  Conformer:     0
#        Ligand:         1  Surface Point:     1  Conformer:     3
#        BUDE Formal Charge: 0
#        ATOM Count: 27
#        Heavy ATOM Count: 17
@<TRIPOS>MOLECULE
pdb1gcz_ligA.pdb_scan_R01_S0046_C0000_L00001_S0001_C0003_G0010_E0001
27 28 1 0 0
SMALL
GASTEIGER
@<TRIPOS>ATOM
       1 C3        -4.6260   -4.1325    0.2511 C.3       1 YZ9900      0.0513 
       2 C11       -3.7178   -5.0269    1.0901 C.3       1 YZ9900      0.2089 
       3 O1        -1.9745   -3.5066   -0.1595 O.2       1 YZ9900     -0.2447 
       4 O2        -2.7570   -4.2197    1.7758 O.3       1 YZ9900     -0.4453 
       5 C6         1.8572   -0.2515    0.9419 C.ar      1 YZ9900      0.0063 
       6 C5        -0.0439   -1.8798    0.9844 C.ar      1 YZ9900      0.0160 
       7 C4         1.9561   -0.2292    3.7260 C.ar      1 YZ9900      0.0796 
       8 O3         0.1277   -1.7964    3.8266 O.2       1 YZ9900     -0.4208 
       9 C2         0.9591   -1.0367    1.6725 C.ar      1 YZ9900      0.0353 
      10 C1         1.0087   -1.0255    3.0715 C.ar      1 YZ9900      0.1519 
      11 C7        -0.8145   -2.5883    3.1743 C.ar      1 YZ9900      0.3521 
      12 C12       -1.9087   -3.4769    1.0333 C.2       1 YZ9900      0.3476 
      13 O4         3.7664    1.3213    3.6849 O.3       1 YZ9900     -0.2865 
      14 O5        -1.5764   -3.2557    3.8543 O.2       1 YZ9900     -0.2442 
      15 C10        2.8026    0.5430    1.6015 C.ar      1 YZ9900      0.0422 
      16 C9        -0.8965   -2.6254    1.6971 C.ar      1 YZ9900      0.1515 
      17 C8         2.8574    0.5586    3.0002 C.ar      1 YZ9900      0.1988 
      18 H31       -4.0281   -3.5964   -0.4831 H         1 YZ9900      0.0000 
      19 H32       -5.3655   -4.7453   -0.2601 H         1 YZ9900      0.0000 
      20 H33       -5.1307   -3.4193    0.8993 H         1 YZ9900      0.0000 
      21 H112      -3.2018   -5.7314    0.4413 H         1 YZ9900      0.0000 
      22 H113      -4.3161   -5.5729    1.8164 H         1 YZ9900      0.0000 
      23 H6         1.8248   -0.2550   -0.1376 H         1 YZ9900      0.0000 
      24 H5        -0.0741   -1.8814   -0.0952 H         1 YZ9900      0.0000 
      25 H4         1.9906   -0.2239    4.8055 H         1 YZ9900      0.0000 
      26 HO4        3.6501    1.2237    4.6430 H         1 YZ9900      0.0000 
      27 H10        3.4846    1.1399    1.0141 H         1 YZ9900      0.0000 
@<TRIPOS>BOND
       1       13       17 1        
       2        7       17 ar       
       3        7       10 ar       
       4        8       10 ar       
       5        8       11 ar       
       6       14       11 2        
       7       17       15 ar       
       8       10        9 ar       
       9       11       16 ar       
      10        2        4 1        
      11        2        1 1        
      12       15        5 ar       
      13        9        5 ar       
      14        9        6 ar       
      15       16        6 ar       
      16       16       12 1        
      17        4       12 1        
      18       12        3 2        
      19       18        1 1        
      20       19        1 1        
      21       20        1 1        
      22       21        2 1        
      23       22        2 1        
      24       23        5 1        
      25       24        6 1        
      26       25        7 1        
      27       26       13 1        
      28       27       15 1        
@<TRIPOS>SUBSTRUCTURE
 1 YZ9900 10 RESIDUE 4 A YZ9900 0 ROOT

