#        scan_R01_S0046_C0000_L00001_S0001_C0003_G0010_E0001.mol2
#        Mon Jun 19 14:13:58 2017
#        Descriptor:     16    36     3     3     1     5
#        Energy - RMSD - RMSD MassCentre:     -33.1767    999.9999    999.9999
#        Receptor:       1  Surface Point:    46  Conformer:     0
#        Ligand:         1  Surface Point:     1  Conformer:     3
#        BUDE Formal Charge: 0
#        ATOM Count: 27
#        Heavy ATOM Count: 17
@<TRIPOS>MOLECULE
pdb1gcz_ligA.pdb_scan_R01_S0046_C0000_L00001_S0001_C0003_G0010_E0001
27 28 1 0 0
SMALL
GASTEIGER
@<TRIPOS>ATOM
       1 C3        -4.5777   -3.9857    0.0007 C.3       1 YZ9900      0.0513 
       2 C11       -4.0204   -4.7094    1.2231 C.3       1 YZ9900      0.2089 
       3 O1        -1.8245   -3.8874    0.0338 O.2       1 YZ9900     -0.2447 
       4 O2        -3.0512   -3.8783    1.8672 O.3       1 YZ9900     -0.4453 
       5 C6         2.3268   -1.0225    1.0584 C.ar      1 YZ9900      0.0063 
       6 C5         0.1638   -2.2820    1.1069 C.ar      1 YZ9900      0.0160 
       7 C4         1.9506   -0.1906    3.6905 C.ar      1 YZ9900      0.0796 
       8 O3        -0.1401   -1.3854    3.7936 O.2       1 YZ9900     -0.4208 
       9 C2         1.1803   -1.4221    1.7532 C.ar      1 YZ9900      0.0353 
      10 C1         0.9912   -1.0041    3.0758 C.ar      1 YZ9900      0.1519 
      11 C7        -1.0940   -2.1948    3.1810 C.ar      1 YZ9900      0.3521 
      12 C12       -1.9591   -3.5153    1.1614 C.2       1 YZ9900      0.3476 
      13 O4         4.0104    1.0085    3.6436 O.3       1 YZ9900     -0.2865 
      14 O5        -2.0772   -2.5173    3.8274 O.2       1 YZ9900     -0.2442 
      15 C10        3.2830   -0.2089    1.6779 C.ar      1 YZ9900      0.0422 
      16 C9        -0.9279   -2.6560    1.7846 C.ar      1 YZ9900      0.1515 
      17 C8         3.0998    0.2124    3.0002 C.ar      1 YZ9900      0.1988 
      18 H31       -3.7694   -3.7805   -0.6982 H         1 YZ9900      0.0000 
      19 H32       -5.3248   -4.6125   -0.4816 H         1 YZ9900      0.0000 
      20 H33       -5.0355   -3.0492    0.3120 H         1 YZ9900      0.0000 
      21 H112      -3.5498   -5.6395    0.9115 H         1 YZ9900      0.0000 
      22 H113      -4.8296   -4.9264    1.9172 H         1 YZ9900      0.0000 
      23 H6         2.4794   -1.3410    0.0378 H         1 YZ9900      0.0000 
      24 H5         0.3189   -2.5991    0.0863 H         1 YZ9900      0.0000 
      25 H4         1.8003    0.1293    4.7110 H         1 YZ9900      0.0000 
      26 HO4        3.7150    1.2164    4.5439 H         1 YZ9900      0.0000 
      27 H10        4.1593    0.0855    1.1194 H         1 YZ9900      0.0000 
@<TRIPOS>BOND
       1       13       17 1        
       2        7       17 ar       
       3        7       10 ar       
       4        8       10 ar       
       5        8       11 ar       
       6       14       11 2        
       7       17       15 ar       
       8       10        9 ar       
       9       11       16 ar       
      10        2        4 1        
      11        2        1 1        
      12       15        5 ar       
      13        9        5 ar       
      14        9        6 ar       
      15       16        6 ar       
      16       16       12 1        
      17        4       12 1        
      18       12        3 2        
      19       18        1 1        
      20       19        1 1        
      21       20        1 1        
      22       21        2 1        
      23       22        2 1        
      24       23        5 1        
      25       24        6 1        
      26       25        7 1        
      27       26       13 1        
      28       27       15 1        
@<TRIPOS>SUBSTRUCTURE
 1 YZ9900 10 RESIDUE 4 A YZ9900 0 ROOT

