#        scan_R01_S0047_C0000_L00001_S0001_C0000_G0010_E0001.mol2
#        Mon Jun 19 14:42:09 2017
#        Descriptor:     16    32     9     2     3     6
#        Energy - RMSD - RMSD MassCentre:     -38.7935    999.9999    999.9999
#        Receptor:       1  Surface Point:    47  Conformer:     0
#        Ligand:         1  Surface Point:     1  Conformer:     0
#        BUDE Formal Charge: 0
#        ATOM Count: 27
#        Heavy ATOM Count: 17
@<TRIPOS>MOLECULE
pdb1gcz_ligA.pdb_scan_R01_S0047_C0000_L00001_S0001_C0000_G0010_E0001
27 28 1 0 0
SMALL
GASTEIGER
@<TRIPOS>ATOM
       1 C3        -3.1613    2.0388    0.1318 C.3       1 YZ9900      0.0513 
       2 C11       -3.1203    1.8859    1.6254 C.3       1 YZ9900      0.2089 
       3 O1        -1.1639   -0.9056    1.3327 O.2       1 YZ9900     -0.2447 
       4 O2        -2.8274    0.4730    1.9700 O.3       1 YZ9900     -0.4453 
       5 C6         2.9123    0.8946    4.1063 C.ar      1 YZ9900      0.0063 
       6 C5         0.6874    0.2732    3.0944 C.ar      1 YZ9900      0.0160 
       7 C4         1.5274    1.7043    6.5674 C.ar      1 YZ9900      0.0796 
       8 O3        -0.5386    1.0778    5.5053 O.2       1 YZ9900     -0.4208 
       9 C2         1.5063    0.7939    4.2324 C.ar      1 YZ9900      0.0353 
      10 C1         0.8508    1.1922    5.4378 C.ar      1 YZ9900      0.1519 
      11 C7        -1.2846    0.6912    4.4956 C.ar      1 YZ9900      0.3521 
      12 C12       -1.5887   -0.0917    2.0951 C.2       1 YZ9900      0.3476 
      13 O4         3.6955    2.2663    7.3956 O.3       1 YZ9900     -0.2865 
      14 O5        -2.4421    0.6750    4.6326 O.2       1 YZ9900     -0.2442 
      15 C10        3.6423    1.4079    5.2176 C.ar      1 YZ9900      0.0422 
      16 C9        -0.6752    0.2907    3.2207 C.ar      1 YZ9900      0.1515 
      17 C8         2.9462    1.7884    6.3873 C.ar      1 YZ9900      0.1988 
      18 H31       -2.2054    1.7304   -0.2919 H         1 YZ9900      0.0000 
      19 H32       -3.9570    1.4150   -0.2753 H         1 YZ9900      0.0000 
      20 H33       -3.3516    3.0817   -0.1214 H         1 YZ9900      0.0000 
      21 H112      -4.0849    2.1700    2.0462 H         1 YZ9900      0.0000 
      22 H113      -2.3414    2.5289    2.0354 H         1 YZ9900      0.0000 
      23 H6         3.4147    0.5928    3.1994 H         1 YZ9900      0.0000 
      24 H5         1.1576   -0.1054    2.1989 H         1 YZ9900      0.0000 
      25 H4         1.0253    2.0024    7.4758 H         1 YZ9900      0.0000 
      26 HO4        4.0256    3.1376    7.1645 H         1 YZ9900      0.0000 
      27 H10        4.7167    1.5052    5.1663 H         1 YZ9900      0.0000 
@<TRIPOS>BOND
       1       13       17 1        
       2        7       17 ar       
       3        7       10 ar       
       4        8       10 ar       
       5        8       11 ar       
       6       14       11 2        
       7       17       15 ar       
       8       10        9 ar       
       9       11       16 ar       
      10        2        4 1        
      11        2        1 1        
      12       15        5 ar       
      13        9        5 ar       
      14        9        6 ar       
      15       16        6 ar       
      16       16       12 1        
      17        4       12 1        
      18       12        3 2        
      19       18        1 1        
      20       19        1 1        
      21       20        1 1        
      22       21        2 1        
      23       22        2 1        
      24       23        5 1        
      25       24        6 1        
      26       25        7 1        
      27       26       13 1        
      28       27       15 1        
@<TRIPOS>SUBSTRUCTURE
 1 YZ9900 10 RESIDUE 4 A YZ9900 0 ROOT

