#        1GCZ_R01_S0001_C0000_L00005_S0001_C0002_G0010_E0001.mol2
#        Tue Jun  6 14:05:36 2017
#        Descriptor:     21    19    23    11     4    14
#        Energy - RMSD - RMSD MassCentre:     -52.7789    999.9999    999.9999
#        Receptor:       1  Surface Point:     1  Conformer:     0
#        Ligand:         5  Surface Point:     1  Conformer:     2
#        BUDE Formal Charge: 0
#        ATOM Count: 55
#        Heavy ATOM Count: 30
@<TRIPOS>MOLECULE
ZINC61464195_1GCZ_R01_S0001_C0000_L00005_S0001_C0002_G0010_E0001
 55 56 0 0 0
SMALL
USER_CHARGES
@<TRIPOS>ATOM
       1 C1         1.2217    2.6689    5.9271 C.3       1 <0>        -0.1456 
       2 C2         0.0503    1.7111    5.7292 C.3       1 <0>        -0.0579 
       3 C3        -0.2661    1.5938    4.2410 C.3       1 <0>        -0.1456 
       4 C4         0.4157    0.3512    6.2738 C.ar      1 <0>        -0.0771 
       5 C5        -0.3559   -0.1771    7.3156 C.ar      1 <0>        -0.0943 
       6 C6        -0.1079   -1.4756    7.7765 C.ar      1 <0>        -0.0923 
       7 C7         0.9027   -2.2536    7.1993 C.ar      1 <0>        -0.1041 
       8 C8         1.7135   -1.7151    6.1932 C.ar      1 <0>        -0.1315 
       9 C9         1.4813   -0.4039    5.7612 C.ar      1 <0>        -0.0969 
      10 S1         1.1546   -3.9164    7.7514 S.3       1 <0>        -0.0341 
      11 C10        0.1323   -5.0464    6.7562 C.3       1 <0>        -0.1267 
      12 C11        0.3472   -6.4649    7.2272 C.2       1 <0>         0.4864 
      13 O1        -0.4589   -6.9881    7.9374 O.2       1 <0>        -0.4815 
      14 O2         1.4508   -7.1424    6.8460 O.3       1 <0>        -0.3231 
      15 C12        1.6111   -8.4830    7.3171 C.3       1 <0>         0.0526 
      16 C13        2.9008   -9.0542    6.7779 C.2       1 <0>         0.5250 
      17 O3         2.8816  -10.0754    6.0926 O.2       1 <0>        -0.5082 
      18 N1         4.0573   -8.4538    7.0436 N.am      1 <0>        -0.5981 
      19 C14        4.0803   -7.2333    7.8626 C.3       1 <0>         0.0731 
      20 C15        5.3119   -9.0113    6.5180 C.3       1 <0>         0.1010 
      21 C16        6.1803   -7.8910    5.9973 C.2       1 <0>         0.4997 
      22 O4         7.3481   -7.7942    6.3708 O.2       1 <0>        -0.5061 
      23 N2         5.6817   -7.0096    5.1350 N.am      1 <0>        -0.6702 
      24 C17        6.4953   -5.9599    4.6469 C.ar      1 <0>         0.1553 
      25 C18        5.9755   -4.6648    4.5362 C.ar      1 <0>        -0.1106 
      26 C19        6.7863   -3.6278    4.0596 C.ar      1 <0>        -0.0959 
      27 C20        8.1090   -3.8827    3.6867 C.ar      1 <0>        -0.1208 
      28 C21        8.6258   -5.1803    3.7842 C.ar      1 <0>        -0.0919 
      29 C22        7.8185   -6.2166    4.2682 C.ar      1 <0>        -0.0639 
      30 Cl1        8.4557   -7.8314    4.3872 Cl        1 <0>        -0.0632 
      31 H1         2.0898    2.2952    5.3881 H         1 <0>         0.0596 
      32 H2         0.9536    3.6524    5.5466 H         1 <0>         0.0563 
      33 H3         1.4555    2.7408    6.9872 H         1 <0>         0.0575 
      34 H4        -0.8220    2.0901    6.2574 H         1 <0>         0.0784 
      35 H5        -1.1094    0.9206    4.1022 H         1 <0>         0.0596 
      36 H6         0.6023    1.2014    3.7160 H         1 <0>         0.0574 
      37 H7        -0.5165    2.5761    3.8456 H         1 <0>         0.0563 
      38 H8        -1.1546    0.3962    7.7625 H         1 <0>         0.1285 
      39 H9        -0.6786   -1.9286    8.5738 H         1 <0>         0.1293 
      40 H10        2.5015   -2.3207    5.7703 H         1 <0>         0.1227 
      41 H11        2.1387    0.0079    5.0099 H         1 <0>         0.1262 
      42 H12       -0.9171   -4.7823    6.8697 H         1 <0>         0.1329 
      43 H13        0.4160   -4.9658    5.7089 H         1 <0>         0.1329 
      44 H14        0.7755   -9.0904    6.9756 H         1 <0>         0.1063 
      45 H15        1.6410   -8.4848    8.4046 H         1 <0>         0.1054 
      46 H16        3.6756   -7.4515    8.8487 H         1 <0>         0.0686 
      47 H17        5.1053   -6.8820    7.9599 H         1 <0>         0.0794 
      48 H18        3.4767   -6.4649    7.3840 H         1 <0>         0.0778 
      49 H19        5.8358   -9.5371    7.3136 H         1 <0>         0.1198 
      50 H20        5.0895   -9.7044    5.7095 H         1 <0>         0.1233 
      51 H21        4.7225   -7.0902    4.8289 H         1 <0>         0.4142 
      52 H22        4.9541   -4.4614    4.8224 H         1 <0>         0.1473 
      53 H23        6.3856   -2.6277    3.9820 H         1 <0>         0.1337 
      54 H24        8.7353   -3.0817    3.3228 H         1 <0>         0.1349 
      55 H25        9.6456   -5.3803    3.4904 H         1 <0>         0.1385 
@<TRIPOS>BOND
       1        1        2 1        
       2        1       31 1        
       3        1       32 1        
       4        1       33 1        
       5        2        3 1        
       6        2        4 1        
       7        2       34 1        
       8        3       35 1        
       9        3       36 1        
      10        3       37 1        
      11        4        9 ar       
      12        4        5 ar       
      13        5        6 ar       
      14        5       38 1        
      15        6        7 ar       
      16        6       39 1        
      17        7        8 ar       
      18        7       10 1        
      19        8        9 ar       
      20        8       40 1        
      21        9       41 1        
      22       10       11 1        
      23       11       12 1        
      24       11       42 1        
      25       11       43 1        
      26       12       13 2        
      27       12       14 1        
      28       14       15 1        
      29       15       16 1        
      30       15       44 1        
      31       15       45 1        
      32       16       17 2        
      33       16       18 am       
      34       18       19 1        
      35       18       20 1        
      36       19       46 1        
      37       19       47 1        
      38       19       48 1        
      39       20       21 1        
      40       20       49 1        
      41       20       50 1        
      42       21       22 2        
      43       21       23 am       
      44       23       24 1        
      45       23       51 1        
      46       24       29 ar       
      47       24       25 ar       
      48       25       26 ar       
      49       25       52 1        
      50       26       27 ar       
      51       26       53 1        
      52       27       28 ar       
      53       27       54 1        
      54       28       29 ar       
      55       28       55 1        
      56       29       30 1        

