#        scan_R01_S0047_C0000_L00001_S0001_C0000_G0010_E0001.mol2
#        Mon Jun 19 14:13:58 2017
#        Descriptor:     29    15     4     3     3     6
#        Energy - RMSD - RMSD MassCentre:     -41.0115    999.9999    999.9999
#        Receptor:       1  Surface Point:    47  Conformer:     0
#        Ligand:         1  Surface Point:     1  Conformer:     0
#        BUDE Formal Charge: 0
#        ATOM Count: 27
#        Heavy ATOM Count: 17
@<TRIPOS>MOLECULE
pdb1gcz_ligA.pdb_scan_R01_S0047_C0000_L00001_S0001_C0000_G0010_E0001
27 28 1 0 0
SMALL
GASTEIGER
@<TRIPOS>ATOM
       1 C3        -2.4943   -2.2892    2.2661 C.3       1 YZ9900      0.0513 
       2 C11       -1.0121   -2.0570    2.3369 C.3       1 YZ9900      0.2089 
       3 O1        -1.4435    1.2412    1.5359 O.2       1 YZ9900     -0.2447 
       4 O2        -0.6580   -0.8699    1.5206 O.3       1 YZ9900     -0.4453 
       5 C6         0.7602    3.2288    5.8651 C.ar      1 YZ9900      0.0063 
       6 C5         0.0434    1.9350    3.8225 C.ar      1 YZ9900      0.0160 
       7 C4         3.3410    1.8266    5.8047 C.ar      1 YZ9900      0.0796 
       8 O3         2.5555    0.6502    3.8585 O.2       1 YZ9900     -0.4208 
       9 C2         1.0571    2.2663    4.8710 C.ar      1 YZ9900      0.0353 
      10 C1         2.3184    1.5952    4.8579 C.ar      1 YZ9900      0.1519 
      11 C7         1.6559    0.2913    2.9711 C.ar      1 YZ9900      0.3521 
      12 C12       -0.6634    0.4322    1.9372 C.2       1 YZ9900      0.3476 
      13 O4         3.8844    3.1060    7.7465 O.3       1 YZ9900     -0.2865 
      14 O5         1.9310   -0.5436    2.2056 O.2       1 YZ9900     -0.2442 
      15 C10        1.7583    3.4976    6.8464 C.ar      1 YZ9900      0.0422 
      16 C9         0.3313    0.9253    2.9447 C.ar      1 YZ9900      0.1515 
      17 C8         2.9895    2.8061    6.7893 C.ar      1 YZ9900      0.1988 
      18 H31       -3.0189   -1.4045    2.6272 H         1 YZ9900      0.0000 
      19 H32       -2.7821   -2.4856    1.2332 H         1 YZ9900      0.0000 
      20 H33       -2.7577   -3.1462    2.8858 H         1 YZ9900      0.0000 
      21 H112      -0.4885   -2.9320    1.9516 H         1 YZ9900      0.0000 
      22 H113      -0.7200   -1.8857    3.3730 H         1 YZ9900      0.0000 
      23 H6        -0.1898    3.7420    5.8796 H         1 YZ9900      0.0000 
      24 H5        -0.8888    2.4767    3.7599 H         1 YZ9900      0.0000 
      25 H4         4.2925    1.3161    5.7879 H         1 YZ9900      0.0000 
      26 HO4        3.5864    2.7499    8.5867 H         1 YZ9900      0.0000 
      27 H10        1.5755    4.2225    7.6259 H         1 YZ9900      0.0000 
@<TRIPOS>BOND
       1       13       17 1        
       2        7       17 ar       
       3        7       10 ar       
       4        8       10 ar       
       5        8       11 ar       
       6       14       11 2        
       7       17       15 ar       
       8       10        9 ar       
       9       11       16 ar       
      10        2        4 1        
      11        2        1 1        
      12       15        5 ar       
      13        9        5 ar       
      14        9        6 ar       
      15       16        6 ar       
      16       16       12 1        
      17        4       12 1        
      18       12        3 2        
      19       18        1 1        
      20       19        1 1        
      21       20        1 1        
      22       21        2 1        
      23       22        2 1        
      24       23        5 1        
      25       24        6 1        
      26       25        7 1        
      27       26       13 1        
      28       27       15 1        
@<TRIPOS>SUBSTRUCTURE
 1 YZ9900 10 RESIDUE 4 A YZ9900 0 ROOT

