#        scan_R01_S0047_C0000_L00001_S0001_C0002_G0010_E0001.mol2
#        Mon Jun 19 14:13:59 2017
#        Descriptor:     35    15    21     3     3     8
#        Energy - RMSD - RMSD MassCentre:     -37.6732    999.9999    999.9999
#        Receptor:       1  Surface Point:    47  Conformer:     0
#        Ligand:         1  Surface Point:     1  Conformer:     2
#        BUDE Formal Charge: 0
#        ATOM Count: 27
#        Heavy ATOM Count: 17
@<TRIPOS>MOLECULE
pdb1gcz_ligA.pdb_scan_R01_S0047_C0000_L00001_S0001_C0002_G0010_E0001
27 28 1 0 0
SMALL
GASTEIGER
@<TRIPOS>ATOM
       1 C3        -4.0125   -2.1644    1.5835 C.3       1 YZ9900      0.0513 
       2 C11       -2.6498   -1.5495    1.2777 C.3       1 YZ9900      0.2089 
       3 O1        -0.2923   -0.3889    1.3617 O.2       1 YZ9900     -0.2447 
       4 O2        -2.0609   -1.0712    2.4899 O.3       1 YZ9900     -0.4453 
       5 C6         2.9003    1.7100    4.8102 C.ar      1 YZ9900      0.0063 
       6 C5         1.0118    0.5994    3.5988 C.ar      1 YZ9900      0.0160 
       7 C4         1.5584    1.4405    7.2368 C.ar      1 YZ9900      0.0796 
       8 O3        -0.2887    0.3655    6.1224 O.2       1 YZ9900     -0.4208 
       9 C2         1.6409    1.1018    4.8406 C.ar      1 YZ9900      0.0353 
      10 C1         0.9665    0.9665    6.0599 C.ar      1 YZ9900      0.1519 
      11 C7        -0.8766   -0.1058    4.9508 C.ar      1 YZ9900      0.3521 
      12 C12       -0.8442   -0.4907    2.4167 C.2       1 YZ9900      0.3476 
      13 O4         3.3569    2.4981    8.3898 O.3       1 YZ9900     -0.2865 
      14 O5        -1.9762   -0.6288    5.0276 O.2       1 YZ9900     -0.2442 
      15 C10        3.4876    2.1823    5.9901 C.ar      1 YZ9900      0.0422 
      16 C9        -0.1936    0.0200    3.6439 C.ar      1 YZ9900      0.1515 
      17 C8         2.8184    2.0499    7.2125 C.ar      1 YZ9900      0.1988 
      18 H31       -4.6627   -1.4067    2.0161 H         1 YZ9900      0.0000 
      19 H32       -4.4548   -2.5401    0.6632 H         1 YZ9900      0.0000 
      20 H33       -3.8901   -2.9837    2.2887 H         1 YZ9900      0.0000 
      21 H112      -2.7725   -0.7209    0.5834 H         1 YZ9900      0.0000 
      22 H113      -2.0027   -2.3029    0.8335 H         1 YZ9900      0.0000 
      23 H6         3.4265    1.8179    3.8733 H         1 YZ9900      0.0000 
      24 H5         1.5402    0.7086    2.6632 H         1 YZ9900      0.0000 
      25 H4         1.0342    1.3338    8.1751 H         1 YZ9900      0.0000 
      26 HO4        2.7513    2.3406    9.1310 H         1 YZ9900      0.0000 
      27 H10        4.4608    2.6479    5.9393 H         1 YZ9900      0.0000 
@<TRIPOS>BOND
       1       13       17 1        
       2        7       17 ar       
       3        7       10 ar       
       4        8       10 ar       
       5        8       11 ar       
       6       14       11 2        
       7       17       15 ar       
       8       10        9 ar       
       9       11       16 ar       
      10        2        4 1        
      11        2        1 1        
      12       15        5 ar       
      13        9        5 ar       
      14        9        6 ar       
      15       16        6 ar       
      16       16       12 1        
      17        4       12 1        
      18       12        3 2        
      19       18        1 1        
      20       19        1 1        
      21       20        1 1        
      22       21        2 1        
      23       22        2 1        
      24       23        5 1        
      25       24        6 1        
      26       25        7 1        
      27       26       13 1        
      28       27       15 1        
@<TRIPOS>SUBSTRUCTURE
 1 YZ9900 10 RESIDUE 4 A YZ9900 0 ROOT

