#        scan_R01_S0047_C0000_L00001_S0001_C0003_G0010_E0001.mol2
#        Mon Jun 19 14:42:11 2017
#        Descriptor:     34    16    21     3     3     8
#        Energy - RMSD - RMSD MassCentre:     -36.6063    999.9999    999.9999
#        Receptor:       1  Surface Point:    47  Conformer:     0
#        Ligand:         1  Surface Point:     1  Conformer:     3
#        BUDE Formal Charge: 0
#        ATOM Count: 27
#        Heavy ATOM Count: 17
@<TRIPOS>MOLECULE
pdb1gcz_ligA.pdb_scan_R01_S0047_C0000_L00001_S0001_C0003_G0010_E0001
27 28 1 0 0
SMALL
GASTEIGER
@<TRIPOS>ATOM
       1 C3        -3.3591   -1.2821    1.0189 C.3       1 YZ9900      0.0513 
       2 C11       -3.1701   -2.2185    2.2089 C.3       1 YZ9900      0.2089 
       3 O1        -0.7428   -1.2629    1.8823 O.2       1 YZ9900     -0.2447 
       4 O2        -2.4573   -1.5354    3.2434 O.3       1 YZ9900     -0.4453 
       5 C6         2.8425    1.2753    4.5646 C.ar      1 YZ9900      0.0063 
       6 C5         0.7958    0.0829    3.7542 C.ar      1 YZ9900      0.0160 
       7 C4         1.6819    1.6543    7.0688 C.ar      1 YZ9900      0.0796 
       8 O3        -0.3136    0.5144    6.3422 O.2       1 YZ9900     -0.4208 
       9 C2         1.5525    0.7928    4.8096 C.ar      1 YZ9900      0.0353 
      10 C1         0.9692    0.9832    6.0679 C.ar      1 YZ9900      0.1519 
      11 C7        -1.0217   -0.1531    5.3455 C.ar      1 YZ9900      0.3521 
      12 C12       -1.2150   -1.0857    2.9657 C.2       1 YZ9900      0.3476 
      13 O4         3.6311    2.7896    7.8399 O.3       1 YZ9900     -0.2865 
      14 O5        -2.1435   -0.5555    5.6065 O.2       1 YZ9900     -0.2442 
      15 C10        3.5507    1.9456    5.5691 C.ar      1 YZ9900      0.0422 
      16 C9        -0.4375   -0.3728    4.0037 C.ar      1 YZ9900      0.1515 
      17 C8         2.9731    2.1393    6.8295 C.ar      1 YZ9900      0.1988 
      18 H31       -2.3857   -0.9816    0.6367 H         1 YZ9900      0.0000 
      19 H32       -3.9131   -1.7975    0.2372 H         1 YZ9900      0.0000 
      20 H33       -3.9128   -0.4010    1.3360 H         1 YZ9900      0.0000 
      21 H112      -2.6042   -3.0936    1.8964 H         1 YZ9900      0.0000 
      22 H113      -4.1427   -2.5298    2.5843 H         1 YZ9900      0.0000 
      23 H6         3.2988    1.1320    3.5963 H         1 YZ9900      0.0000 
      24 H5         1.2545   -0.0589    2.7868 H         1 YZ9900      0.0000 
      25 H4         1.2278    1.7988    8.0380 H         1 YZ9900      0.0000 
      26 HO4        3.0771    2.8481    8.6340 H         1 YZ9900      0.0000 
      27 H10        4.5451    2.3083    5.3543 H         1 YZ9900      0.0000 
@<TRIPOS>BOND
       1       13       17 1        
       2        7       17 ar       
       3        7       10 ar       
       4        8       10 ar       
       5        8       11 ar       
       6       14       11 2        
       7       17       15 ar       
       8       10        9 ar       
       9       11       16 ar       
      10        2        4 1        
      11        2        1 1        
      12       15        5 ar       
      13        9        5 ar       
      14        9        6 ar       
      15       16        6 ar       
      16       16       12 1        
      17        4       12 1        
      18       12        3 2        
      19       18        1 1        
      20       19        1 1        
      21       20        1 1        
      22       21        2 1        
      23       22        2 1        
      24       23        5 1        
      25       24        6 1        
      26       25        7 1        
      27       26       13 1        
      28       27       15 1        
@<TRIPOS>SUBSTRUCTURE
 1 YZ9900 10 RESIDUE 4 A YZ9900 0 ROOT

