#        scan_R01_S0048_C0000_L00001_S0001_C0000_G0010_E0001.mol2
#        Mon Jun 19 14:42:11 2017
#        Descriptor:     34     6    30     2     1     6
#        Energy - RMSD - RMSD MassCentre:     -44.0173    999.9999    999.9999
#        Receptor:       1  Surface Point:    48  Conformer:     0
#        Ligand:         1  Surface Point:     1  Conformer:     0
#        BUDE Formal Charge: 0
#        ATOM Count: 27
#        Heavy ATOM Count: 17
@<TRIPOS>MOLECULE
pdb1gcz_ligA.pdb_scan_R01_S0048_C0000_L00001_S0001_C0000_G0010_E0001
27 28 1 0 0
SMALL
GASTEIGER
@<TRIPOS>ATOM
       1 C3        -2.9111   -2.2803    7.9902 C.3       1 YZ9900      0.0513 
       2 C11       -2.6921   -2.5778    6.5344 C.3       1 YZ9900      0.2089 
       3 O1        -2.3595    0.7589    5.8547 O.2       1 YZ9900     -0.2447 
       4 O2        -3.0433   -1.3835    5.7274 O.3       1 YZ9900     -0.4453 
       5 C6         2.4907    0.5104    3.8640 C.ar      1 YZ9900      0.0063 
       6 C5         0.0990    0.2034    4.6024 C.ar      1 YZ9900      0.0160 
       7 C4         2.0927   -1.5699    1.8283 C.ar      1 YZ9900      0.0796 
       8 O3        -0.1724   -1.7785    2.6121 O.2       1 YZ9900     -0.4208 
       9 C2         1.2474   -0.1479    3.7111 C.ar      1 YZ9900      0.0353 
      10 C1         1.0730   -1.1569    2.7146 C.ar      1 YZ9900      0.1519 
      11 C7        -1.1729   -1.5378    3.4287 C.ar      1 YZ9900      0.3521 
      12 C12       -2.2145   -0.3417    5.4167 C.2       1 YZ9900      0.3476 
      13 O4         4.3761   -1.1886    1.2423 O.3       1 YZ9900     -0.2865 
      14 O5        -2.1594   -2.1439    3.2944 O.2       1 YZ9900     -0.2442 
      15 C10        3.5542    0.1286    2.9953 C.ar      1 YZ9900      0.0422 
      16 C9        -1.0513   -0.5295    4.4897 C.ar      1 YZ9900      0.1515 
      17 C8         3.3301   -0.8756    2.0263 C.ar      1 YZ9900      0.1988 
      18 H31       -2.3007   -1.4259    8.2829 H         1 YZ9900      0.0000 
      19 H32       -3.9630   -2.0499    8.1594 H         1 YZ9900      0.0000 
      20 H33       -2.6293   -3.1491    8.5849 H         1 YZ9900      0.0000 
      21 H112      -3.3220   -3.4159    6.2361 H         1 YZ9900      0.0000 
      22 H113      -1.6453   -2.8330    6.3690 H         1 YZ9900      0.0000 
      23 H6         2.6290    1.2759    4.6131 H         1 YZ9900      0.0000 
      24 H5         0.1752    1.0119    5.3144 H         1 YZ9900      0.0000 
      25 H4         1.9533   -2.3327    1.0766 H         1 YZ9900      0.0000 
      26 HO4        5.0318   -1.6641    1.7574 H         1 YZ9900      0.0000 
      27 H10        4.5216    0.6018    3.0768 H         1 YZ9900      0.0000 
@<TRIPOS>BOND
       1       13       17 1        
       2        7       17 ar       
       3        7       10 ar       
       4        8       10 ar       
       5        8       11 ar       
       6       14       11 2        
       7       17       15 ar       
       8       10        9 ar       
       9       11       16 ar       
      10        2        4 1        
      11        2        1 1        
      12       15        5 ar       
      13        9        5 ar       
      14        9        6 ar       
      15       16        6 ar       
      16       16       12 1        
      17        4       12 1        
      18       12        3 2        
      19       18        1 1        
      20       19        1 1        
      21       20        1 1        
      22       21        2 1        
      23       22        2 1        
      24       23        5 1        
      25       24        6 1        
      26       25        7 1        
      27       26       13 1        
      28       27       15 1        
@<TRIPOS>SUBSTRUCTURE
 1 YZ9900 10 RESIDUE 4 A YZ9900 0 ROOT

