#        scan_R01_S0048_C0000_L00001_S0001_C0000_G0010_E0001.mol2
#        Mon Jun 19 14:14:00 2017
#        Descriptor:     35     6    29     2     1     6
#        Energy - RMSD - RMSD MassCentre:     -40.7944    999.9999    999.9999
#        Receptor:       1  Surface Point:    48  Conformer:     0
#        Ligand:         1  Surface Point:     1  Conformer:     0
#        BUDE Formal Charge: 0
#        ATOM Count: 27
#        Heavy ATOM Count: 17
@<TRIPOS>MOLECULE
pdb1gcz_ligA.pdb_scan_R01_S0048_C0000_L00001_S0001_C0000_G0010_E0001
27 28 1 0 0
SMALL
GASTEIGER
@<TRIPOS>ATOM
       1 C3        -3.2457   -2.3503    7.6983 C.3       1 YZ9900      0.0513 
       2 C11       -2.9184   -2.6007    6.2540 C.3       1 YZ9900      0.2089 
       3 O1        -2.4603    0.7489    5.7288 O.2       1 YZ9900     -0.2447 
       4 O2        -3.1784   -1.3700    5.4675 O.3       1 YZ9900     -0.4453 
       5 C6         2.5260    0.4524    4.1170 C.ar      1 YZ9900      0.0063 
       6 C5         0.0771    0.1782    4.6533 C.ar      1 YZ9900      0.0160 
       7 C4         2.2455   -1.5431    1.9793 C.ar      1 YZ9900      0.0796 
       8 O3        -0.0787   -1.7237    2.5744 O.2       1 YZ9900     -0.4208 
       9 C2         1.2846   -0.1692    3.8422 C.ar      1 YZ9900      0.0353 
      10 C1         1.1680   -1.1371    2.7978 C.ar      1 YZ9900      0.1519 
      11 C7        -1.1353   -1.4878    3.3185 C.ar      1 YZ9900      0.3521 
      12 C12       -2.3051   -0.3385    5.2623 C.2       1 YZ9900      0.3476 
      13 O4         4.5759   -1.1975    1.5891 O.3       1 YZ9900     -0.2865 
      14 O5        -2.1210   -2.0642    3.0845 O.2       1 YZ9900     -0.2442 
      15 C10        3.6464    0.0758    3.3207 C.ar      1 YZ9900      0.0422 
      16 C9        -1.0763   -0.5216    4.4231 C.ar      1 YZ9900      0.1515 
      17 C8         3.4781   -0.8871    2.2999 C.ar      1 YZ9900      0.1988 
      18 H31       -2.6420   -1.5223    8.0700 H         1 YZ9900      0.0000 
      19 H32       -4.3025   -2.1003    7.7930 H         1 YZ9900      0.0000 
      20 H33       -3.0309   -3.2466    8.2801 H         1 YZ9900      0.0000 
      21 H112      -3.5408   -3.4118    5.8758 H         1 YZ9900      0.0000 
      22 H113      -1.8676   -2.8756    6.1617 H         1 YZ9900      0.0000 
      23 H6         2.6210    1.1868    4.9029 H         1 YZ9900      0.0000 
      24 H5         0.1141    0.9585    5.3990 H         1 YZ9900      0.0000 
      25 H4         2.1496   -2.2748    1.1908 H         1 YZ9900      0.0000 
      26 HO4        5.1782   -1.7073    2.1358 H         1 YZ9900      0.0000 
      27 H10        4.6144    0.5217    3.4956 H         1 YZ9900      0.0000 
@<TRIPOS>BOND
       1       13       17 1        
       2        7       17 ar       
       3        7       10 ar       
       4        8       10 ar       
       5        8       11 ar       
       6       14       11 2        
       7       17       15 ar       
       8       10        9 ar       
       9       11       16 ar       
      10        2        4 1        
      11        2        1 1        
      12       15        5 ar       
      13        9        5 ar       
      14        9        6 ar       
      15       16        6 ar       
      16       16       12 1        
      17        4       12 1        
      18       12        3 2        
      19       18        1 1        
      20       19        1 1        
      21       20        1 1        
      22       21        2 1        
      23       22        2 1        
      24       23        5 1        
      25       24        6 1        
      26       25        7 1        
      27       26       13 1        
      28       27       15 1        
@<TRIPOS>SUBSTRUCTURE
 1 YZ9900 10 RESIDUE 4 A YZ9900 0 ROOT

