#        scan_R01_S0048_C0000_L00001_S0001_C0002_G0010_E0001.mol2
#        Mon Jun 19 14:42:12 2017
#        Descriptor:      4    20    22     3     1     6
#        Energy - RMSD - RMSD MassCentre:     -44.3889    999.9999    999.9999
#        Receptor:       1  Surface Point:    48  Conformer:     0
#        Ligand:         1  Surface Point:     1  Conformer:     2
#        BUDE Formal Charge: 0
#        ATOM Count: 27
#        Heavy ATOM Count: 17
@<TRIPOS>MOLECULE
pdb1gcz_ligA.pdb_scan_R01_S0048_C0000_L00001_S0001_C0002_G0010_E0001
27 28 1 0 0
SMALL
GASTEIGER
@<TRIPOS>ATOM
       1 C3        -4.8029   -5.2024    5.8197 C.3       1 YZ9900      0.0513 
       2 C11       -4.6204   -4.1657    4.7150 C.3       1 YZ9900      0.2089 
       3 O1        -3.7370   -2.3318    3.0511 O.2       1 YZ9900     -0.2447 
       4 O2        -3.2963   -3.6293    4.7798 O.3       1 YZ9900     -0.4453 
       5 C6         0.5484    0.3704    2.1429 C.ar      1 YZ9900      0.0063 
       6 C5        -1.2191   -1.1737    3.0143 C.ar      1 YZ9900      0.0160 
       7 C4         2.3374   -0.5111    4.0881 C.ar      1 YZ9900      0.0796 
       8 O3         0.6739   -2.0166    4.9688 O.2       1 YZ9900     -0.4208 
       9 C2         0.1461   -0.6044    3.0621 C.ar      1 YZ9900      0.0353 
      10 C1         1.0450   -1.0473    4.0396 C.ar      1 YZ9900      0.1519 
      11 C7        -0.6121   -2.5494    4.9196 C.ar      1 YZ9900      0.3521 
      12 C12       -2.9483   -2.6906    3.8741 C.2       1 YZ9900      0.3476 
      13 O4         4.0200    0.9594    3.2579 O.3       1 YZ9900     -0.2865 
      14 O5        -0.9167   -3.3971    5.7425 O.2       1 YZ9900     -0.2442 
      15 C10        1.8419    0.9032    2.1959 C.ar      1 YZ9900      0.0422 
      16 C9        -1.5893   -2.1055    3.9006 C.ar      1 YZ9900      0.1515 
      17 C8         2.7455    0.4645    3.1708 C.ar      1 YZ9900      0.1988 
      18 H31       -4.6620   -4.7276    6.7886 H         1 YZ9900      0.0000 
      19 H32       -5.8058   -5.6200    5.7621 H         1 YZ9900      0.0000 
      20 H33       -4.0706   -5.9973    5.6948 H         1 YZ9900      0.0000 
      21 H112      -5.3429   -3.3630    4.8470 H         1 YZ9900      0.0000 
      22 H113      -4.7733   -4.6364    3.7462 H         1 YZ9900      0.0000 
      23 H6        -0.1397    0.7169    1.3860 H         1 YZ9900      0.0000 
      24 H5        -1.9052   -0.8253    2.2563 H         1 YZ9900      0.0000 
      25 H4         3.0274   -0.8560    4.8440 H         1 YZ9900      0.0000 
      26 HO4        4.4989    0.5573    3.9995 H         1 YZ9900      0.0000 
      27 H10        2.1275    1.6546    1.4745 H         1 YZ9900      0.0000 
@<TRIPOS>BOND
       1       13       17 1        
       2        7       17 ar       
       3        7       10 ar       
       4        8       10 ar       
       5        8       11 ar       
       6       14       11 2        
       7       17       15 ar       
       8       10        9 ar       
       9       11       16 ar       
      10        2        4 1        
      11        2        1 1        
      12       15        5 ar       
      13        9        5 ar       
      14        9        6 ar       
      15       16        6 ar       
      16       16       12 1        
      17        4       12 1        
      18       12        3 2        
      19       18        1 1        
      20       19        1 1        
      21       20        1 1        
      22       21        2 1        
      23       22        2 1        
      24       23        5 1        
      25       24        6 1        
      26       25        7 1        
      27       26       13 1        
      28       27       15 1        
@<TRIPOS>SUBSTRUCTURE
 1 YZ9900 10 RESIDUE 4 A YZ9900 0 ROOT

