#        scan_R01_S0048_C0000_L00001_S0001_C0002_G0010_E0001.mol2
#        Mon Jun 19 14:14:01 2017
#        Descriptor:     11    21    19     3     1     5
#        Energy - RMSD - RMSD MassCentre:     -42.5557    999.9999    999.9999
#        Receptor:       1  Surface Point:    48  Conformer:     0
#        Ligand:         1  Surface Point:     1  Conformer:     2
#        BUDE Formal Charge: 0
#        ATOM Count: 27
#        Heavy ATOM Count: 17
@<TRIPOS>MOLECULE
pdb1gcz_ligA.pdb_scan_R01_S0048_C0000_L00001_S0001_C0002_G0010_E0001
27 28 1 0 0
SMALL
GASTEIGER
@<TRIPOS>ATOM
       1 C3        -5.2957   -1.2321    6.8671 C.3       1 YZ9900      0.0513 
       2 C11       -4.3072   -0.0953    6.6245 C.3       1 YZ9900      0.2089 
       3 O1        -2.3052    1.4348    5.8741 O.2       1 YZ9900     -0.2447 
       4 O2        -3.2401   -0.5616    5.7945 O.3       1 YZ9900     -0.4453 
       5 C6         1.9929    1.1311    3.0589 C.ar      1 YZ9900      0.0063 
       6 C5        -0.1553    0.7206    4.2773 C.ar      1 YZ9900      0.0160 
       7 C4         2.0309   -1.5026    2.1514 C.ar      1 YZ9900      0.0796 
       8 O3        -0.0366   -1.9544    3.3050 O.2       1 YZ9900     -0.4208 
       9 C2         0.9592    0.2601    3.4192 C.ar      1 YZ9900      0.0353 
      10 C1         0.9782   -1.0633    2.9632 C.ar      1 YZ9900      0.1519 
      11 C7        -1.0834   -1.5162    4.1128 C.ar      1 YZ9900      0.3521 
      12 C12       -2.2624    0.3110    5.4701 C.2       1 YZ9900      0.3476 
      13 O4         4.0764   -1.1111    0.9915 O.3       1 YZ9900     -0.2865 
      14 O5        -1.9619   -2.3125    4.4002 O.2       1 YZ9900     -0.2442 
      15 C10        3.0431    0.6866    2.2468 C.ar      1 YZ9900      0.0422 
      16 C9        -1.1369   -0.1245    4.6135 C.ar      1 YZ9900      0.1515 
      17 C8         3.0679   -0.6356    1.7876 C.ar      1 YZ9900      0.1988 
      18 H31       -4.7884   -2.0513    7.3726 H         1 YZ9900      0.0000 
      19 H32       -6.1143   -0.8736    7.4877 H         1 YZ9900      0.0000 
      20 H33       -5.6879   -1.5805    5.9140 H         1 YZ9900      0.0000 
      21 H112      -3.9036    0.2446    7.5760 H         1 YZ9900      0.0000 
      22 H113      -4.8162    0.7296    6.1304 H         1 YZ9900      0.0000 
      23 H6         1.9849    2.1535    3.4070 H         1 YZ9900      0.0000 
      24 H5        -0.1608    1.7434    4.6239 H         1 YZ9900      0.0000 
      25 H4         2.0412   -2.5245    1.8020 H         1 YZ9900      0.0000 
      26 HO4        3.9419   -2.0490    0.7836 H         1 YZ9900      0.0000 
      27 H10        3.8288    1.3791    1.9832 H         1 YZ9900      0.0000 
@<TRIPOS>BOND
       1       13       17 1        
       2        7       17 ar       
       3        7       10 ar       
       4        8       10 ar       
       5        8       11 ar       
       6       14       11 2        
       7       17       15 ar       
       8       10        9 ar       
       9       11       16 ar       
      10        2        4 1        
      11        2        1 1        
      12       15        5 ar       
      13        9        5 ar       
      14        9        6 ar       
      15       16        6 ar       
      16       16       12 1        
      17        4       12 1        
      18       12        3 2        
      19       18        1 1        
      20       19        1 1        
      21       20        1 1        
      22       21        2 1        
      23       22        2 1        
      24       23        5 1        
      25       24        6 1        
      26       25        7 1        
      27       26       13 1        
      28       27       15 1        
@<TRIPOS>SUBSTRUCTURE
 1 YZ9900 10 RESIDUE 4 A YZ9900 0 ROOT

