#        1GCZ_R01_S0001_C0000_L00005_S0001_C0003_G0010_E0001.mol2
#        Tue Jun  6 09:55:31 2017
#        Descriptor:     12    21    21    10     7    13
#        Energy - RMSD - RMSD MassCentre:     -66.9144    999.9999    999.9999
#        Receptor:       1  Surface Point:     1  Conformer:     0
#        Ligand:         5  Surface Point:     1  Conformer:     3
#        BUDE Formal Charge: 0
#        ATOM Count: 55
#        Heavy ATOM Count: 30
@<TRIPOS>MOLECULE
ZINC61464195_1GCZ_R01_S0001_C0000_L00005_S0001_C0003_G0010_E0001
 55 56 0 0 0
SMALL
USER_CHARGES
@<TRIPOS>ATOM
       1 C1         0.2697   -0.4060   -0.3638 C.3       1 <0>        -0.1456 
       2 C2        -0.8596   -1.0511    0.4344 C.3       1 <0>        -0.0579 
       3 C3        -0.6401   -2.5598    0.4995 C.3       1 <0>        -0.1456 
       4 C4        -0.8730   -0.4845    1.8339 C.ar      1 <0>        -0.0771 
       5 C5        -2.0197    0.1919    2.2664 C.ar      1 <0>        -0.0943 
       6 C6        -2.1053    0.6423    3.5891 C.ar      1 <0>        -0.0923 
       7 C7        -1.0545    0.4159    4.4862 C.ar      1 <0>        -0.1041 
       8 C8         0.1172   -0.2130    4.0488 C.ar      1 <0>        -0.1315 
       9 C9         0.2086   -0.6301    2.7156 C.ar      1 <0>        -0.0969 
      10 S1        -1.2115    0.9339    6.1714 S.3       1 <0>        -0.0341 
      11 C10       -1.9403   -0.4137    7.1539 C.3       1 <0>        -0.1267 
      12 C11       -1.0374   -1.6227    7.0960 C.2       1 <0>         0.4864 
      13 O1        -1.3035   -2.5339    6.3702 O.2       1 <0>        -0.4815 
      14 O2         0.0710   -1.6741    7.8649 O.3       1 <0>        -0.3231 
      15 C12        0.8953   -2.8393    7.7762 C.3       1 <0>         0.0526 
      16 C13        2.0728   -2.6940    8.7102 C.2       1 <0>         0.5250 
      17 O3         2.2594   -3.5249    9.5977 O.2       1 <0>        -0.5082 
      18 N1         2.9082   -1.6683    8.5738 N.am      1 <0>        -0.5981 
      19 C14        4.0541   -1.5284    9.4838 C.3       1 <0>         0.0731 
      20 C15        2.6854   -0.6754    7.5130 C.3       1 <0>         0.1010 
      21 C16        4.0027   -0.3356    6.8578 C.2       1 <0>         0.4997 
      22 O4         4.3457    0.8397    6.7406 O.2       1 <0>        -0.5061 
      23 N2         4.7914   -1.3076    6.4080 N.am      1 <0>        -0.6702 
      24 C17        6.0259   -0.9891    5.7941 C.ar      1 <0>         0.1553 
      25 C18        6.4276   -1.6669    4.6369 C.ar      1 <0>        -0.1106 
      26 C19        7.6465   -1.3436    4.0288 C.ar      1 <0>        -0.0959 
      27 C20        8.4664   -0.3534    4.5774 C.ar      1 <0>        -0.1208 
      28 C21        8.0718    0.3156    5.7422 C.ar      1 <0>        -0.0919 
      29 C22        6.8495   -0.0011    6.3469 C.ar      1 <0>        -0.0639 
      30 Cl1        6.3573    0.8251    7.7969 Cl        1 <0>        -0.0632 
      31 H1         1.2221   -0.6253    0.1142 H         1 <0>         0.0596 
      32 H2         0.2709   -0.8044   -1.3762 H         1 <0>         0.0563 
      33 H3         0.1197    0.6712   -0.3976 H         1 <0>         0.0575 
      34 H4        -1.8114   -0.8430   -0.0495 H         1 <0>         0.0784 
      35 H5        -1.4524   -3.0201    1.0581 H         1 <0>         0.0596 
      36 H6         0.3055   -2.7670    0.9961 H         1 <0>         0.0574 
      37 H7        -0.6171   -2.9662   -0.5096 H         1 <0>         0.0563 
      38 H8        -2.8517    0.3599    1.5986 H         1 <0>         0.1285 
      39 H9        -2.9701    1.1644    3.9710 H         1 <0>         0.1293 
      40 H10        0.9270   -0.3640    4.7474 H         1 <0>         0.1227 
      41 H11        1.1329   -1.0810    2.3861 H         1 <0>         0.1262 
      42 H12       -2.0489   -0.0920    8.1876 H         1 <0>         0.1329 
      43 H13       -2.9168   -0.6713    6.7491 H         1 <0>         0.1329 
      44 H14        1.2546   -2.9532    6.7555 H         1 <0>         0.1063 
      45 H15        0.3162   -3.7164    8.0574 H         1 <0>         0.1054 
      46 H16        4.7017   -2.3973    9.3869 H         1 <0>         0.0686 
      47 H17        4.6114   -0.6295    9.2286 H         1 <0>         0.0794 
      48 H18        3.6958   -1.4550   10.5086 H         1 <0>         0.0778 
      49 H19        2.0052   -1.0863    6.7697 H         1 <0>         0.1198 
      50 H20        2.2515    0.2242    7.9446 H         1 <0>         0.1233 
      51 H21        4.5088   -2.2724    6.5048 H         1 <0>         0.4142 
      52 H22        5.7989   -2.4333    4.2084 H         1 <0>         0.1473 
      53 H23        7.9512   -1.8624    3.1318 H         1 <0>         0.1337 
      54 H24        9.4046   -0.1015    4.1058 H         1 <0>         0.1349 
      55 H25        8.7070    1.0765    6.1710 H         1 <0>         0.1385 
@<TRIPOS>BOND
       1        1        2 1        
       2        1       31 1        
       3        1       32 1        
       4        1       33 1        
       5        2        3 1        
       6        2        4 1        
       7        2       34 1        
       8        3       35 1        
       9        3       36 1        
      10        3       37 1        
      11        4        9 ar       
      12        4        5 ar       
      13        5        6 ar       
      14        5       38 1        
      15        6        7 ar       
      16        6       39 1        
      17        7        8 ar       
      18        7       10 1        
      19        8        9 ar       
      20        8       40 1        
      21        9       41 1        
      22       10       11 1        
      23       11       12 1        
      24       11       42 1        
      25       11       43 1        
      26       12       13 2        
      27       12       14 1        
      28       14       15 1        
      29       15       16 1        
      30       15       44 1        
      31       15       45 1        
      32       16       17 2        
      33       16       18 am       
      34       18       19 1        
      35       18       20 1        
      36       19       46 1        
      37       19       47 1        
      38       19       48 1        
      39       20       21 1        
      40       20       49 1        
      41       20       50 1        
      42       21       22 2        
      43       21       23 am       
      44       23       24 1        
      45       23       51 1        
      46       24       29 ar       
      47       24       25 ar       
      48       25       26 ar       
      49       25       52 1        
      50       26       27 ar       
      51       26       53 1        
      52       27       28 ar       
      53       27       54 1        
      54       28       29 ar       
      55       28       55 1        
      56       29       30 1        

