#        scan_R01_S0049_C0000_L00001_S0001_C0000_G0010_E0001.mol2
#        Mon Jun 19 14:42:13 2017
#        Descriptor:     22     8    13     1     2     6
#        Energy - RMSD - RMSD MassCentre:     -40.0413    999.9999    999.9999
#        Receptor:       1  Surface Point:    49  Conformer:     0
#        Ligand:         1  Surface Point:     1  Conformer:     0
#        BUDE Formal Charge: 0
#        ATOM Count: 27
#        Heavy ATOM Count: 17
@<TRIPOS>MOLECULE
pdb1gcz_ligA.pdb_scan_R01_S0049_C0000_L00001_S0001_C0000_G0010_E0001
27 28 1 0 0
SMALL
GASTEIGER
@<TRIPOS>ATOM
       1 C3        -3.0935   -3.0567    7.5084 C.3       1 YZ9900      0.0513 
       2 C11       -1.9552   -2.9724    6.5323 C.3       1 YZ9900      0.2089 
       3 O1        -4.0387   -1.6871    4.1421 O.2       1 YZ9900     -0.2447 
       4 O2        -2.4893   -2.9759    5.1483 O.3       1 YZ9900     -0.4453 
       5 C6        -1.4510    2.8213    3.4164 C.ar      1 YZ9900      0.0063 
       6 C5        -2.2540    0.4651    3.8208 C.ar      1 YZ9900      0.0160 
       7 C4         1.2425    1.7753    2.8864 C.ar      1 YZ9900      0.0796 
       8 O3         0.3693   -0.4298    3.2913 O.2       1 YZ9900     -0.4208 
       9 C2        -1.1699    1.4355    3.4748 C.ar      1 YZ9900      0.0353 
      10 C1         0.1466    0.9458    3.2132 C.ar      1 YZ9900      0.1519 
      11 C7        -0.5483   -1.2935    3.6622 C.ar      1 YZ9900      0.3521 
      12 C12       -2.8985   -1.8847    4.4336 C.2       1 YZ9900      0.3476 
      13 O4         1.8715    4.0537    2.5466 O.3       1 YZ9900     -0.2865 
      14 O5        -0.2533   -2.4181    3.7455 O.2       1 YZ9900     -0.2442 
      15 C10       -0.3783    3.7021    3.0929 C.ar      1 YZ9900      0.0422 
      16 C9        -1.9155   -0.8527    3.9684 C.ar      1 YZ9900      0.1515 
      17 C8         0.9058    3.1671    2.8433 C.ar      1 YZ9900      0.1988 
      18 H31       -3.7677   -2.2140    7.3549 H         1 YZ9900      0.0000 
      19 H32       -3.6365   -3.9891    7.3533 H         1 YZ9900      0.0000 
      20 H33       -2.7026   -3.0288    8.5255 H         1 YZ9900      0.0000 
      21 H112      -1.2951   -3.8290    6.6691 H         1 YZ9900      0.0000 
      22 H113      -1.3966   -2.0522    6.7038 H         1 YZ9900      0.0000 
      23 H6        -2.4442    3.1983    3.6101 H         1 YZ9900      0.0000 
      24 H5        -3.2742    0.7946    3.9506 H         1 YZ9900      0.0000 
      25 H4         2.2349    1.3978    2.6889 H         1 YZ9900      0.0000 
      26 HO4        2.1012    4.5528    3.3338 H         1 YZ9900      0.0000 
      27 H10       -0.5450    4.7679    3.0393 H         1 YZ9900      0.0000 
@<TRIPOS>BOND
       1       13       17 1        
       2        7       17 ar       
       3        7       10 ar       
       4        8       10 ar       
       5        8       11 ar       
       6       14       11 2        
       7       17       15 ar       
       8       10        9 ar       
       9       11       16 ar       
      10        2        4 1        
      11        2        1 1        
      12       15        5 ar       
      13        9        5 ar       
      14        9        6 ar       
      15       16        6 ar       
      16       16       12 1        
      17        4       12 1        
      18       12        3 2        
      19       18        1 1        
      20       19        1 1        
      21       20        1 1        
      22       21        2 1        
      23       22        2 1        
      24       23        5 1        
      25       24        6 1        
      26       25        7 1        
      27       26       13 1        
      28       27       15 1        
@<TRIPOS>SUBSTRUCTURE
 1 YZ9900 10 RESIDUE 4 A YZ9900 0 ROOT

