#        scan_R01_S0049_C0000_L00001_S0001_C0000_G0010_E0001.mol2
#        Mon Jun 19 14:14:02 2017
#        Descriptor:      5    10    30     1     2     6
#        Energy - RMSD - RMSD MassCentre:     -40.8896    999.9999    999.9999
#        Receptor:       1  Surface Point:    49  Conformer:     0
#        Ligand:         1  Surface Point:     1  Conformer:     0
#        BUDE Formal Charge: 0
#        ATOM Count: 27
#        Heavy ATOM Count: 17
@<TRIPOS>MOLECULE
pdb1gcz_ligA.pdb_scan_R01_S0049_C0000_L00001_S0001_C0000_G0010_E0001
27 28 1 0 0
SMALL
GASTEIGER
@<TRIPOS>ATOM
       1 C3        -3.0132   -2.9895    7.6118 C.3       1 YZ9900      0.0513 
       2 C11       -1.8992   -2.9253    6.6064 C.3       1 YZ9900      0.2089 
       3 O1        -4.0383   -1.6758    4.2467 O.2       1 YZ9900     -0.2447 
       4 O2        -2.4676   -2.9513    5.2364 O.3       1 YZ9900     -0.4453 
       5 C6        -1.4585    2.8120    3.3788 C.ar      1 YZ9900      0.0063 
       6 C5        -2.2569    0.4655    3.8439 C.ar      1 YZ9900      0.0160 
       7 C4         1.2185    1.7493    2.8005 C.ar      1 YZ9900      0.0796 
       8 O3         0.3503   -0.4460    3.2651 O.2       1 YZ9900     -0.4208 
       9 C2        -1.1794    1.4267    3.4543 C.ar      1 YZ9900      0.0353 
      10 C1         0.1290    0.9288    3.1687 C.ar      1 YZ9900      0.1519 
      11 C7        -0.5600   -1.3004    3.6737 C.ar      1 YZ9900      0.3521 
      12 C12       -2.8917   -1.8715    4.5132 C.2       1 YZ9900      0.3476 
      13 O4         1.8444    4.0197    2.4056 O.3       1 YZ9900     -0.2865 
      14 O5        -0.2657   -2.4243    3.7692 O.2       1 YZ9900     -0.2442 
      15 C10       -0.3920    3.6841    3.0136 C.ar      1 YZ9900      0.0422 
      16 C9        -1.9181   -0.8505    4.0059 C.ar      1 YZ9900      0.1515 
      17 C8         0.8842    3.1411    2.7415 C.ar      1 YZ9900      0.1988 
      18 H31       -3.6890   -2.1477    7.4604 H         1 YZ9900      0.0000 
      19 H32       -3.5621   -3.9228    7.4864 H         1 YZ9900      0.0000 
      20 H33       -2.5971   -2.9451    8.6183 H         1 YZ9900      0.0000 
      21 H112      -1.2380   -3.7813    6.7417 H         1 YZ9900      0.0000 
      22 H113      -1.3344   -2.0039    6.7481 H         1 YZ9900      0.0000 
      23 H6        -2.4457    3.1952    3.5904 H         1 YZ9900      0.0000 
      24 H5        -3.2728    0.8001    3.9931 H         1 YZ9900      0.0000 
      25 H4         2.2048    1.3656    2.5851 H         1 YZ9900      0.0000 
      26 HO4        2.0948    4.5317    3.1781 H         1 YZ9900      0.0000 
      27 H10       -0.5574    4.7492    2.9455 H         1 YZ9900      0.0000 
@<TRIPOS>BOND
       1       13       17 1        
       2        7       17 ar       
       3        7       10 ar       
       4        8       10 ar       
       5        8       11 ar       
       6       14       11 2        
       7       17       15 ar       
       8       10        9 ar       
       9       11       16 ar       
      10        2        4 1        
      11        2        1 1        
      12       15        5 ar       
      13        9        5 ar       
      14        9        6 ar       
      15       16        6 ar       
      16       16       12 1        
      17        4       12 1        
      18       12        3 2        
      19       18        1 1        
      20       19        1 1        
      21       20        1 1        
      22       21        2 1        
      23       22        2 1        
      24       23        5 1        
      25       24        6 1        
      26       25        7 1        
      27       26       13 1        
      28       27       15 1        
@<TRIPOS>SUBSTRUCTURE
 1 YZ9900 10 RESIDUE 4 A YZ9900 0 ROOT

