#        scan_R01_S0049_C0000_L00001_S0001_C0002_G0010_E0001.mol2
#        Mon Jun 19 14:42:13 2017
#        Descriptor:     16    17    19     1     1     4
#        Energy - RMSD - RMSD MassCentre:     -44.3630    999.9999    999.9999
#        Receptor:       1  Surface Point:    49  Conformer:     0
#        Ligand:         1  Surface Point:     1  Conformer:     2
#        BUDE Formal Charge: 0
#        ATOM Count: 27
#        Heavy ATOM Count: 17
@<TRIPOS>MOLECULE
pdb1gcz_ligA.pdb_scan_R01_S0049_C0000_L00001_S0001_C0002_G0010_E0001
27 28 1 0 0
SMALL
GASTEIGER
@<TRIPOS>ATOM
       1 C3        -8.3211   -1.9045    1.5230 C.3       1 YZ9900      0.0513 
       2 C11       -7.4413   -1.4227    2.6728 C.3       1 YZ9900      0.2089 
       3 O1        -5.4687   -0.6829    4.2456 O.2       1 YZ9900     -0.2447 
       4 O2        -6.0732   -1.4202    2.2564 O.3       1 YZ9900     -0.4453 
       5 C6        -0.3471   -0.1915    4.1097 C.ar      1 YZ9900      0.0063 
       6 C5        -2.7679   -0.6090    3.6272 C.ar      1 YZ9900      0.0160 
       7 C4         0.3481   -0.9914    1.5333 C.ar      1 YZ9900      0.0796 
       8 O3        -1.9678   -1.4106    1.0135 O.2       1 YZ9900     -0.4208 
       9 C2        -1.3456   -0.5982    3.2184 C.ar      1 YZ9900      0.0353 
      10 C1        -0.9963   -1.0002    1.9237 C.ar      1 YZ9900      0.1519 
      11 C7        -3.3051   -1.4189    1.4031 C.ar      1 YZ9900      0.3521 
      12 C12       -5.1409   -1.0206    3.1473 C.2       1 YZ9900      0.3476 
      13 O4         2.6531   -0.5937    1.9933 O.3       1 YZ9900     -0.2865 
      14 O5        -4.1399   -1.7817    0.5907 O.2       1 YZ9900     -0.2442 
      15 C10        0.9958   -0.1846    3.7141 C.ar      1 YZ9900      0.0422 
      16 C9        -3.7118   -1.0008    2.7632 C.ar      1 YZ9900      0.1515 
      17 C8         1.3516   -0.5854    2.4209 C.ar      1 YZ9900      0.1988 
      18 H31       -8.0347   -2.9176    1.2479 H         1 YZ9900      0.0000 
      19 H32       -9.3632   -1.8938    1.8355 H         1 YZ9900      0.0000 
      20 H33       -8.1917   -1.2454    0.6672 H         1 YZ9900      0.0000 
      21 H112      -7.5592   -2.0892    3.5246 H         1 YZ9900      0.0000 
      22 H113      -7.7349   -0.4144    2.9572 H         1 YZ9900      0.0000 
      23 H6        -0.6091    0.1200    5.1101 H         1 YZ9900      0.0000 
      24 H5        -3.0271   -0.2970    4.6282 H         1 YZ9900      0.0000 
      25 H4         0.6127   -1.3024    0.5333 H         1 YZ9900      0.0000 
      26 HO4        2.7168   -0.9152    1.0803 H         1 YZ9900      0.0000 
      27 H10        1.7473    0.1338    4.4214 H         1 YZ9900      0.0000 
@<TRIPOS>BOND
       1       13       17 1        
       2        7       17 ar       
       3        7       10 ar       
       4        8       10 ar       
       5        8       11 ar       
       6       14       11 2        
       7       17       15 ar       
       8       10        9 ar       
       9       11       16 ar       
      10        2        4 1        
      11        2        1 1        
      12       15        5 ar       
      13        9        5 ar       
      14        9        6 ar       
      15       16        6 ar       
      16       16       12 1        
      17        4       12 1        
      18       12        3 2        
      19       18        1 1        
      20       19        1 1        
      21       20        1 1        
      22       21        2 1        
      23       22        2 1        
      24       23        5 1        
      25       24        6 1        
      26       25        7 1        
      27       26       13 1        
      28       27       15 1        
@<TRIPOS>SUBSTRUCTURE
 1 YZ9900 10 RESIDUE 4 A YZ9900 0 ROOT

