#        scan_R01_S0049_C0000_L00001_S0001_C0002_G0010_E0001.mol2
#        Mon Jun 19 14:14:03 2017
#        Descriptor:     11    18    19     1     2     4
#        Energy - RMSD - RMSD MassCentre:     -40.7857    999.9999    999.9999
#        Receptor:       1  Surface Point:    49  Conformer:     0
#        Ligand:         1  Surface Point:     1  Conformer:     2
#        BUDE Formal Charge: 0
#        ATOM Count: 27
#        Heavy ATOM Count: 17
@<TRIPOS>MOLECULE
pdb1gcz_ligA.pdb_scan_R01_S0049_C0000_L00001_S0001_C0002_G0010_E0001
27 28 1 0 0
SMALL
GASTEIGER
@<TRIPOS>ATOM
       1 C3        -8.3766   -0.4227    2.2288 C.3       1 YZ9900      0.0513 
       2 C11       -7.4230    0.7080    2.6042 C.3       1 YZ9900      0.2089 
       3 O1        -5.3467    2.2512    3.0729 O.2       1 YZ9900     -0.2447 
       4 O2        -6.0753    0.2911    2.3703 O.3       1 YZ9900     -0.4453 
       5 C6        -0.2140    2.0946    2.7250 C.ar      1 YZ9900      0.0063 
       6 C5        -2.6735    1.6292    2.6867 C.ar      1 YZ9900      0.0160 
       7 C4         0.3263   -0.4505    1.7290 C.ar      1 YZ9900      0.0796 
       8 O3        -2.0302   -0.9532    1.6709 O.2       1 YZ9900     -0.4208 
       9 C2        -1.2708    1.2196    2.4523 C.ar      1 YZ9900      0.0353 
      10 C1        -0.9994   -0.0594    1.9520 C.ar      1 YZ9900      0.1519 
      11 C7        -3.3488   -0.5630    1.8930 C.ar      1 YZ9900      0.3521 
      12 C12       -5.0848    1.1660    2.6465 C.2       1 YZ9900      0.3476 
      13 O4         2.6682   -0.0067    1.7658 O.3       1 YZ9900     -0.2865 
      14 O5        -4.2365   -1.3609    1.6402 O.2       1 YZ9900     -0.2442 
      15 C10        1.1098    1.6984    2.5002 C.ar      1 YZ9900      0.0422 
      16 C9        -3.6738    0.7808    2.4211 C.ar      1 YZ9900      0.1515 
      17 C8         1.3879    0.4209    1.9999 C.ar      1 YZ9900      0.1988 
      18 H31       -8.1652   -1.2941    2.8452 H         1 YZ9900      0.0000 
      19 H32       -9.4026   -0.1008    2.3943 H         1 YZ9900      0.0000 
      20 H33       -8.2405   -0.6779    1.1800 H         1 YZ9900      0.0000 
      21 H112      -7.5482    0.9547    3.6565 H         1 YZ9900      0.0000 
      22 H113      -7.6415    1.5841    1.9972 H         1 YZ9900      0.0000 
      23 H6        -0.4157    3.0828    3.1112 H         1 YZ9900      0.0000 
      24 H5        -2.8725    2.6180    3.0729 H         1 YZ9900      0.0000 
      25 H4         0.5307   -1.4382    1.3428 H         1 YZ9900      0.0000 
      26 HO4        2.6750   -0.9197    1.4381 H         1 YZ9900      0.0000 
      27 H10        1.9074    2.3929    2.7189 H         1 YZ9900      0.0000 
@<TRIPOS>BOND
       1       13       17 1        
       2        7       17 ar       
       3        7       10 ar       
       4        8       10 ar       
       5        8       11 ar       
       6       14       11 2        
       7       17       15 ar       
       8       10        9 ar       
       9       11       16 ar       
      10        2        4 1        
      11        2        1 1        
      12       15        5 ar       
      13        9        5 ar       
      14        9        6 ar       
      15       16        6 ar       
      16       16       12 1        
      17        4       12 1        
      18       12        3 2        
      19       18        1 1        
      20       19        1 1        
      21       20        1 1        
      22       21        2 1        
      23       22        2 1        
      24       23        5 1        
      25       24        6 1        
      26       25        7 1        
      27       26       13 1        
      28       27       15 1        
@<TRIPOS>SUBSTRUCTURE
 1 YZ9900 10 RESIDUE 4 A YZ9900 0 ROOT

