#        scan_R01_S0049_C0000_L00001_S0001_C0003_G0010_E0001.mol2
#        Mon Jun 19 14:14:04 2017
#        Descriptor:      9    18    17     1     1     4
#        Energy - RMSD - RMSD MassCentre:     -42.0171    999.9999    999.9999
#        Receptor:       1  Surface Point:    49  Conformer:     0
#        Ligand:         1  Surface Point:     1  Conformer:     3
#        BUDE Formal Charge: 0
#        ATOM Count: 27
#        Heavy ATOM Count: 17
@<TRIPOS>MOLECULE
pdb1gcz_ligA.pdb_scan_R01_S0049_C0000_L00001_S0001_C0003_G0010_E0001
27 28 1 0 0
SMALL
GASTEIGER
@<TRIPOS>ATOM
       1 C3        -6.7499    2.8052    3.2167 C.3       1 YZ9900      0.0513 
       2 C11       -6.7766    1.9579    1.9478 C.3       1 YZ9900      0.2089 
       3 O1        -4.2821    2.7870    1.9918 O.2       1 YZ9900     -0.2447 
       4 O2        -5.6599    1.0647    1.9485 O.3       1 YZ9900     -0.4453 
       5 C6         0.4779    0.8293    2.0224 C.ar      1 YZ9900      0.0063 
       6 C5        -1.9945    1.2220    1.9971 C.ar      1 YZ9900      0.0160 
       7 C4         0.0832   -1.9282    1.9759 C.ar      1 YZ9900      0.0796 
       8 O3        -2.3057   -1.6091    1.9506 O.2       1 YZ9900     -0.4208 
       9 C2        -0.8235    0.3169    1.9982 C.ar      1 YZ9900      0.0353 
      10 C1        -1.0220   -1.0687    1.9749 C.ar      1 YZ9900      0.1519 
      11 C7        -3.4045   -0.7530    1.9496 C.ar      1 YZ9900      0.3521 
      12 C12       -4.4207    1.6002    1.9722 C.2       1 YZ9900      0.3476 
      13 O4         2.4375   -2.3016    2.0000 O.3       1 YZ9900     -0.2865 
      14 O5        -4.5199   -1.2468    1.9281 O.2       1 YZ9900     -0.2442 
      15 C10        1.5795   -0.0348    2.0233 C.ar      1 YZ9900      0.0422 
      16 C9        -3.2334    0.7168    1.9739 C.ar      1 YZ9900      0.1515 
      17 C8         1.3878   -1.4212    2.0000 C.ar      1 YZ9900      0.1988 
      18 H31       -5.8320    3.3888    3.2430 H         1 YZ9900      0.0000 
      19 H32       -7.6069    3.4754    3.2226 H         1 YZ9900      0.0000 
      20 H33       -6.7917    2.1543    4.0875 H         1 YZ9900      0.0000 
      21 H112      -6.7206    2.6069    1.0764 H         1 YZ9900      0.0000 
      22 H113      -7.6997    1.3832    1.9141 H         1 YZ9900      0.0000 
      23 H6         0.6387    1.8971    2.0405 H         1 YZ9900      0.0000 
      24 H5        -1.8308    2.2894    2.0152 H         1 YZ9900      0.0000 
      25 H4        -0.0749   -2.9965    1.9578 H         1 YZ9900      0.0000 
      26 HO4        2.1216   -3.2188    2.0000 H         1 YZ9900      0.0000 
      27 H10        2.5738    0.3864    2.0422 H         1 YZ9900      0.0000 
@<TRIPOS>BOND
       1       13       17 1        
       2        7       17 ar       
       3        7       10 ar       
       4        8       10 ar       
       5        8       11 ar       
       6       14       11 2        
       7       17       15 ar       
       8       10        9 ar       
       9       11       16 ar       
      10        2        4 1        
      11        2        1 1        
      12       15        5 ar       
      13        9        5 ar       
      14        9        6 ar       
      15       16        6 ar       
      16       16       12 1        
      17        4       12 1        
      18       12        3 2        
      19       18        1 1        
      20       19        1 1        
      21       20        1 1        
      22       21        2 1        
      23       22        2 1        
      24       23        5 1        
      25       24        6 1        
      26       25        7 1        
      27       26       13 1        
      28       27       15 1        
@<TRIPOS>SUBSTRUCTURE
 1 YZ9900 10 RESIDUE 4 A YZ9900 0 ROOT

