#        scan_R01_S0050_C0000_L00001_S0001_C0000_G0010_E0001.mol2
#        Mon Jun 19 14:42:14 2017
#        Descriptor:     17    18     1     1     1     5
#        Energy - RMSD - RMSD MassCentre:     -34.2132    999.9999    999.9999
#        Receptor:       1  Surface Point:    50  Conformer:     0
#        Ligand:         1  Surface Point:     1  Conformer:     0
#        BUDE Formal Charge: 0
#        ATOM Count: 27
#        Heavy ATOM Count: 17
@<TRIPOS>MOLECULE
pdb1gcz_ligA.pdb_scan_R01_S0050_C0000_L00001_S0001_C0000_G0010_E0001
27 28 1 0 0
SMALL
GASTEIGER
@<TRIPOS>ATOM
       1 C3        -4.8422    1.8885    4.7116 C.3       1 YZ9900      0.0513 
       2 C11       -3.7428    1.8570    3.6887 C.3       1 YZ9900      0.2089 
       3 O1        -1.5484    0.6435    6.0164 O.2       1 YZ9900     -0.2447 
       4 O2        -2.4281    1.9095    4.3741 O.3       1 YZ9900     -0.4453 
       5 C6        -0.3547   -3.8009    3.4922 C.ar      1 YZ9900      0.0063 
       6 C5        -0.9425   -1.4726    4.2626 C.ar      1 YZ9900      0.0160 
       7 C4         0.4281   -2.7022    0.8826 C.ar      1 YZ9900      0.0796 
       8 O3        -0.1616   -0.5257    1.7216 O.2       1 YZ9900     -0.4208 
       9 C2        -0.4384   -2.4153    3.2167 C.ar      1 YZ9900      0.0353 
      10 C1        -0.0524   -1.8997    1.9414 C.ar      1 YZ9900      0.1519 
      11 C7        -0.6676    0.3113    2.5985 C.ar      1 YZ9900      0.3521 
      12 C12       -1.7191    0.8429    4.8523 C.2       1 YZ9900      0.3476 
      13 O4         0.9291   -4.9575    0.2784 O.3       1 YZ9900     -0.2865 
      14 O5        -0.7637    1.4351    2.3044 O.2       1 YZ9900     -0.2442 
      15 C10        0.1220   -4.6551    2.4557 C.ar      1 YZ9900      0.0422 
      16 C9        -1.1055   -0.1577    3.9197 C.ar      1 YZ9900      0.1515 
      17 C8         0.4907   -4.0951    1.2116 C.ar      1 YZ9900      0.1988 
      18 H31       -4.7300    1.0446    5.3925 H         1 YZ9900      0.0000 
      19 H32       -4.7868    2.8198    5.2755 H         1 YZ9900      0.0000 
      20 H33       -5.8074    1.8246    4.2095 H         1 YZ9900      0.0000 
      21 H112      -3.8404    2.7153    3.0240 H         1 YZ9900      0.0000 
      22 H113      -3.8132    0.9374    3.1077 H         1 YZ9900      0.0000 
      23 H6        -0.6421   -4.1973    4.4547 H         1 YZ9900      0.0000 
      24 H5        -1.1712   -1.8192    5.2595 H         1 YZ9900      0.0000 
      25 H4         0.7191   -2.3053   -0.0787 H         1 YZ9900      0.0000 
      26 HO4        0.1935   -5.4849   -0.0415 H         1 YZ9900      0.0000 
      27 H10        0.2005   -5.7198    2.6194 H         1 YZ9900      0.0000 
@<TRIPOS>BOND
       1       13       17 1        
       2        7       17 ar       
       3        7       10 ar       
       4        8       10 ar       
       5        8       11 ar       
       6       14       11 2        
       7       17       15 ar       
       8       10        9 ar       
       9       11       16 ar       
      10        2        4 1        
      11        2        1 1        
      12       15        5 ar       
      13        9        5 ar       
      14        9        6 ar       
      15       16        6 ar       
      16       16       12 1        
      17        4       12 1        
      18       12        3 2        
      19       18        1 1        
      20       19        1 1        
      21       20        1 1        
      22       21        2 1        
      23       22        2 1        
      24       23        5 1        
      25       24        6 1        
      26       25        7 1        
      27       26       13 1        
      28       27       15 1        
@<TRIPOS>SUBSTRUCTURE
 1 YZ9900 10 RESIDUE 4 A YZ9900 0 ROOT

