#        1GCZ_R01_S0001_C0000_L00005_S0001_C0003_G0010_E0001.mol2
#        Tue Jun  6 14:05:38 2017
#        Descriptor:     12    22    20    11     7    12
#        Energy - RMSD - RMSD MassCentre:     -69.1360    999.9999    999.9999
#        Receptor:       1  Surface Point:     1  Conformer:     0
#        Ligand:         5  Surface Point:     1  Conformer:     3
#        BUDE Formal Charge: 0
#        ATOM Count: 55
#        Heavy ATOM Count: 30
@<TRIPOS>MOLECULE
ZINC61464195_1GCZ_R01_S0001_C0000_L00005_S0001_C0003_G0010_E0001
 55 56 0 0 0
SMALL
USER_CHARGES
@<TRIPOS>ATOM
       1 C1         0.5410   -0.4269   -1.0737 C.3       1 <0>        -0.1456 
       2 C2        -0.5343   -0.8119   -0.0618 C.3       1 <0>        -0.0579 
       3 C3        -0.5614   -2.3290    0.1003 C.3       1 <0>        -0.1456 
       4 C4        -0.2246   -0.1699    1.2693 C.ar      1 <0>        -0.0771 
       5 C5        -1.1566    0.7244    1.8089 C.ar      1 <0>        -0.0943 
       6 C6        -0.9489    1.2606    3.0854 C.ar      1 <0>        -0.0923 
       7 C7         0.1815    0.9043    3.8304 C.ar      1 <0>        -0.1041 
       8 C8         1.1450    0.0519    3.2781 C.ar      1 <0>        -0.1315 
       9 C9         0.9468   -0.4532    1.9876 C.ar      1 <0>        -0.0969 
      10 S1         0.3902    1.5412    5.4687 S.3       1 <0>        -0.0341 
      11 C10       -0.3826    0.4058    6.6628 C.3       1 <0>        -0.1267 
      12 C11        0.2846   -0.9460    6.5750 C.2       1 <0>         0.4864 
      13 O1        -0.2443   -1.8367    5.9794 O.2       1 <0>        -0.4815 
      14 O2         1.4794   -1.1484    7.1700 O.3       1 <0>        -0.3231 
      15 C12        2.0724   -2.4449    7.0598 C.3       1 <0>         0.0526 
      16 C13        3.3941   -2.4565    7.7899 C.2       1 <0>         0.5250 
      17 O3         3.5821   -3.2532    8.7081 O.2       1 <0>        -0.5082 
      18 N1         4.3551   -1.6060    7.4410 N.am      1 <0>        -0.5981 
      19 C14        5.6412   -1.6186    8.1527 C.3       1 <0>         0.0731 
      20 C15        4.1306   -0.6540    6.3435 C.3       1 <0>         0.1010 
      21 C16        5.3613   -0.5939    5.4707 C.2       1 <0>         0.4997 
      22 O4         5.8714    0.4925    5.2017 O.2       1 <0>        -0.5061 
      23 N2         5.8930   -1.7157    4.9935 N.am      1 <0>        -0.6702 
      24 C17        7.0464   -1.6594    4.1756 C.ar      1 <0>         0.1553 
      25 C18        7.1353   -2.4654    3.0344 C.ar      1 <0>        -0.1106 
      26 C19        8.2753   -2.4011    2.2243 C.ar      1 <0>        -0.0959 
      27 C20        9.3269   -1.5419    2.5552 C.ar      1 <0>        -0.1208 
      28 C21        9.2446   -0.7454    3.7036 C.ar      1 <0>        -0.0919 
      29 C22        8.1019   -0.8028    4.5104 C.ar      1 <0>        -0.0639 
      30 Cl1        7.9975    0.1825    5.9407 Cl        1 <0>        -0.0632 
      31 H1         1.5086   -0.7835   -0.7271 H         1 <0>         0.0596 
      32 H2         0.3107   -0.8786   -2.0363 H         1 <0>         0.0563 
      33 H3         0.5690    0.6559   -1.1779 H         1 <0>         0.0575 
      34 H4        -1.5042   -0.4666   -0.4133 H         1 <0>         0.0784 
      35 H5        -1.3369   -2.6032    0.8126 H         1 <0>         0.0596 
      36 H6         0.4046   -2.6715    0.4652 H         1 <0>         0.0574 
      37 H7        -0.7714   -2.7922   -0.8616 H         1 <0>         0.0563 
      38 H8        -2.0466    0.9980    1.2618 H         1 <0>         0.1285 
      39 H9        -1.6407    1.9502    3.5461 H         1 <0>         0.1293 
      40 H10        2.0212   -0.1992    3.8574 H         1 <0>         0.1227 
      41 H11        1.7168   -1.0804    1.5633 H         1 <0>         0.1262 
      42 H12       -0.2660    0.8025    7.6693 H         1 <0>         0.1329 
      43 H13       -1.4411    0.3026    6.4334 H         1 <0>         0.1329 
      44 H14        2.2364   -2.6814    6.0105 H         1 <0>         0.1063 
      45 H15        1.4092   -3.1865    7.5000 H         1 <0>         0.1054 
      46 H16        6.1105   -2.5932    8.0353 H         1 <0>         0.0686 
      47 H17        6.2912   -0.8502    7.7395 H         1 <0>         0.0794 
      48 H18        5.4721   -1.4219    9.2094 H         1 <0>         0.0778 
      49 H19        3.2795   -0.9805    5.7495 H         1 <0>         0.1198 
      50 H20        3.9289    0.3325    6.7558 H         1 <0>         0.1233 
      51 H21        5.4733   -2.6073    5.2152 H         1 <0>         0.4142 
      52 H22        6.3263   -3.1316    2.7736 H         1 <0>         0.1473 
      53 H23        8.3388   -3.0182    1.3401 H         1 <0>         0.1337 
      54 H24       10.2043   -1.4898    1.9278 H         1 <0>         0.1349 
      55 H25       10.0591   -0.0857    3.9643 H         1 <0>         0.1385 
@<TRIPOS>BOND
       1        1        2 1        
       2        1       31 1        
       3        1       32 1        
       4        1       33 1        
       5        2        3 1        
       6        2        4 1        
       7        2       34 1        
       8        3       35 1        
       9        3       36 1        
      10        3       37 1        
      11        4        9 ar       
      12        4        5 ar       
      13        5        6 ar       
      14        5       38 1        
      15        6        7 ar       
      16        6       39 1        
      17        7        8 ar       
      18        7       10 1        
      19        8        9 ar       
      20        8       40 1        
      21        9       41 1        
      22       10       11 1        
      23       11       12 1        
      24       11       42 1        
      25       11       43 1        
      26       12       13 2        
      27       12       14 1        
      28       14       15 1        
      29       15       16 1        
      30       15       44 1        
      31       15       45 1        
      32       16       17 2        
      33       16       18 am       
      34       18       19 1        
      35       18       20 1        
      36       19       46 1        
      37       19       47 1        
      38       19       48 1        
      39       20       21 1        
      40       20       49 1        
      41       20       50 1        
      42       21       22 2        
      43       21       23 am       
      44       23       24 1        
      45       23       51 1        
      46       24       29 ar       
      47       24       25 ar       
      48       25       26 ar       
      49       25       52 1        
      50       26       27 ar       
      51       26       53 1        
      52       27       28 ar       
      53       27       54 1        
      54       28       29 ar       
      55       28       55 1        
      56       29       30 1        

