#        scan_R01_S0050_C0000_L00001_S0001_C0003_G0010_E0001.mol2
#        Mon Jun 19 14:42:16 2017
#        Descriptor:     27    24     8     1     3     6
#        Energy - RMSD - RMSD MassCentre:     -36.7993    999.9999    999.9999
#        Receptor:       1  Surface Point:    50  Conformer:     0
#        Ligand:         1  Surface Point:     1  Conformer:     3
#        BUDE Formal Charge: 0
#        ATOM Count: 27
#        Heavy ATOM Count: 17
@<TRIPOS>MOLECULE
pdb1gcz_ligA.pdb_scan_R01_S0050_C0000_L00001_S0001_C0003_G0010_E0001
27 28 1 0 0
SMALL
GASTEIGER
@<TRIPOS>ATOM
       1 C3        -2.9752    5.6286    8.8678 C.3       1 YZ9900      0.0513 
       2 C11       -2.3502    4.3413    9.3976 C.3       1 YZ9900      0.2089 
       3 O1        -3.7750    3.4570    7.3728 O.2       1 YZ9900     -0.2447 
       4 O2        -1.7838    3.6049    8.3105 O.3       1 YZ9900     -0.4453 
       5 C6        -3.1223    0.8162    3.0034 C.ar      1 YZ9900      0.0063 
       6 C5        -2.8669    2.0198    5.1837 C.ar      1 YZ9900      0.0160 
       7 C4        -0.3953    0.2488    2.9487 C.ar      1 YZ9900      0.0796 
       8 O3        -0.0909    1.3954    5.0467 O.2       1 YZ9900     -0.4208 
       9 C2        -2.3028    1.2560    4.0484 C.ar      1 YZ9900      0.0353 
      10 C1        -0.9325    0.9710    4.0210 C.ar      1 YZ9900      0.1519 
      11 C7        -0.6266    2.1139    6.1131 C.ar      1 YZ9900      0.3521 
      12 C12       -2.6093    3.1989    7.3224 C.2       1 YZ9900      0.3476 
      13 O4        -0.6391   -0.8971    0.8725 O.3       1 YZ9900     -0.2865 
      14 O5         0.1278    2.4761    7.0009 O.2       1 YZ9900     -0.2442 
      15 C10       -2.5798    0.0944    1.9335 C.ar      1 YZ9900      0.0422 
      16 C9        -2.0702    2.4338    6.1760 C.ar      1 YZ9900      0.1515 
      17 C8        -1.2103   -0.1940    1.9001 C.ar      1 YZ9900      0.1988 
      18 H31       -3.7639    5.3834    8.1596 H         1 YZ9900      0.0000 
      19 H32       -3.3943    6.1953    9.6966 H         1 YZ9900      0.0000 
      20 H33       -2.2121    6.2234    8.3702 H         1 YZ9900      0.0000 
      21 H112      -3.1152    3.7391    9.8831 H         1 YZ9900      0.0000 
      22 H113      -1.5697    4.5849   10.1153 H         1 YZ9900      0.0000 
      23 H6        -4.1803    1.0325    3.0179 H         1 YZ9900      0.0000 
      24 H5        -3.9253    2.2346    5.1957 H         1 YZ9900      0.0000 
      25 H4         0.6625    0.0312    2.9319 H         1 YZ9900      0.0000 
      26 HO4        0.3177   -0.9888    1.0040 H         1 YZ9900      0.0000 
      27 H10       -3.2341   -0.2337    1.1394 H         1 YZ9900      0.0000 
@<TRIPOS>BOND
       1       13       17 1        
       2        7       17 ar       
       3        7       10 ar       
       4        8       10 ar       
       5        8       11 ar       
       6       14       11 2        
       7       17       15 ar       
       8       10        9 ar       
       9       11       16 ar       
      10        2        4 1        
      11        2        1 1        
      12       15        5 ar       
      13        9        5 ar       
      14        9        6 ar       
      15       16        6 ar       
      16       16       12 1        
      17        4       12 1        
      18       12        3 2        
      19       18        1 1        
      20       19        1 1        
      21       20        1 1        
      22       21        2 1        
      23       22        2 1        
      24       23        5 1        
      25       24        6 1        
      26       25        7 1        
      27       26       13 1        
      28       27       15 1        
@<TRIPOS>SUBSTRUCTURE
 1 YZ9900 10 RESIDUE 4 A YZ9900 0 ROOT

