#        scan_R01_S0050_C0000_L00001_S0001_C0003_G0010_E0001.mol2
#        Mon Jun 19 14:14:05 2017
#        Descriptor:     29    24     9     1     3     6
#        Energy - RMSD - RMSD MassCentre:     -35.0608    999.9999    999.9999
#        Receptor:       1  Surface Point:    50  Conformer:     0
#        Ligand:         1  Surface Point:     1  Conformer:     3
#        BUDE Formal Charge: 0
#        ATOM Count: 27
#        Heavy ATOM Count: 17
@<TRIPOS>MOLECULE
pdb1gcz_ligA.pdb_scan_R01_S0050_C0000_L00001_S0001_C0003_G0010_E0001
27 28 1 0 0
SMALL
GASTEIGER
@<TRIPOS>ATOM
       1 C3        -3.1670    5.9660    8.4344 C.3       1 YZ9900      0.0513 
       2 C11       -2.8126    4.6245    9.0694 C.3       1 YZ9900      0.2089 
       3 O1        -3.9718    3.8741    6.8322 O.2       1 YZ9900     -0.2447 
       4 O2        -2.1680    3.7945    8.0996 O.3       1 YZ9900     -0.4453 
       5 C6        -2.9263    1.0589    2.6522 C.ar      1 YZ9900      0.0063 
       6 C5        -2.8950    2.2773    4.8390 C.ar      1 YZ9900      0.0160 
       7 C4        -0.3260    0.1514    3.0721 C.ar      1 YZ9900      0.0796 
       8 O3        -0.2401    1.3050    5.1866 O.2       1 YZ9900     -0.4208 
       9 C2        -2.2481    1.4192    3.8214 C.ar      1 YZ9900      0.0353 
      10 C1        -0.9414    0.9632    4.0324 C.ar      1 YZ9900      0.1519 
      11 C7        -0.8534    2.1128    6.1414 C.ar      1 YZ9900      0.3521 
      12 C12       -2.8576    3.4701    6.9852 C.2       1 YZ9900      0.3476 
      13 O4        -0.3564   -1.0085    0.9896 O.3       1 YZ9900     -0.2865 
      14 O5        -0.2218    2.4002    7.1448 O.2       1 YZ9900     -0.2442 
      15 C10       -2.3062    0.2468    1.6951 C.ar      1 YZ9900      0.0422 
      16 C9        -2.2333    2.6135    5.9524 C.ar      1 YZ9900      0.1515 
      17 C8        -0.9998   -0.2124    1.9002 C.ar      1 YZ9900      0.1988 
      18 H31       -3.8479    5.8036    7.6014 H         1 YZ9900      0.0000 
      19 H32       -3.6453    6.6024    9.1759 H         1 YZ9900      0.0000 
      20 H33       -2.2600    6.4468    8.0739 H         1 YZ9900      0.0000 
      21 H112      -3.7203    4.1363    9.4177 H         1 YZ9900      0.0000 
      22 H113      -2.1416    4.7866    9.9103 H         1 YZ9900      0.0000 
      23 H6        -3.9345    1.4070    2.4825 H         1 YZ9900      0.0000 
      24 H5        -3.9033    2.6239    4.6668 H         1 YZ9900      0.0000 
      25 H4         0.6822   -0.1980    3.2394 H         1 YZ9900      0.0000 
      26 HO4        0.5439   -1.2164    1.2850 H         1 YZ9900      0.0000 
      27 H10       -2.8517   -0.0168    0.8010 H         1 YZ9900      0.0000 
@<TRIPOS>BOND
       1       13       17 1        
       2        7       17 ar       
       3        7       10 ar       
       4        8       10 ar       
       5        8       11 ar       
       6       14       11 2        
       7       17       15 ar       
       8       10        9 ar       
       9       11       16 ar       
      10        2        4 1        
      11        2        1 1        
      12       15        5 ar       
      13        9        5 ar       
      14        9        6 ar       
      15       16        6 ar       
      16       16       12 1        
      17        4       12 1        
      18       12        3 2        
      19       18        1 1        
      20       19        1 1        
      21       20        1 1        
      22       21        2 1        
      23       22        2 1        
      24       23        5 1        
      25       24        6 1        
      26       25        7 1        
      27       26       13 1        
      28       27       15 1        
@<TRIPOS>SUBSTRUCTURE
 1 YZ9900 10 RESIDUE 4 A YZ9900 0 ROOT

