#        scan_R01_S0051_C0000_L00001_S0001_C0000_G0010_E0001.mol2
#        Mon Jun 19 14:14:06 2017
#        Descriptor:     17    33    11     1     1     5
#        Energy - RMSD - RMSD MassCentre:     -20.5256    999.9999    999.9999
#        Receptor:       1  Surface Point:    51  Conformer:     0
#        Ligand:         1  Surface Point:     1  Conformer:     0
#        BUDE Formal Charge: 0
#        ATOM Count: 27
#        Heavy ATOM Count: 17
@<TRIPOS>MOLECULE
pdb1gcz_ligA.pdb_scan_R01_S0051_C0000_L00001_S0001_C0000_G0010_E0001
27 28 1 0 0
SMALL
GASTEIGER
@<TRIPOS>ATOM
       1 C3        -4.9795   -0.3343   -0.1234 C.3       1 YZ9900      0.0513 
       2 C11       -4.6268   -0.6544    1.3010 C.3       1 YZ9900      0.2089 
       3 O1        -2.1700   -2.7961    0.2604 O.2       1 YZ9900     -0.2447 
       4 O2        -3.9575   -1.9770    1.3594 O.3       1 YZ9900     -0.4453 
       5 C6         1.8256   -0.3709    2.6483 C.ar      1 YZ9900      0.0063 
       6 C5        -0.3449   -1.4100    1.8938 C.ar      1 YZ9900      0.0160 
       7 C4         0.7752   -0.2509    5.3891 C.ar      1 YZ9900      0.0796 
       8 O3        -1.2518   -1.2482    4.5611 O.2       1 YZ9900     -0.4208 
       9 C2         0.5294   -0.8419    2.9660 C.ar      1 YZ9900      0.0353 
      10 C1         0.0364   -0.7756    4.3053 C.ar      1 YZ9900      0.1519 
      11 C7        -2.0635   -1.6850    3.6252 C.ar      1 YZ9900      0.3521 
      12 C12       -2.6211   -2.2178    1.2018 C.2       1 YZ9900      0.3476 
      13 O4         2.8709    0.7395    5.9633 O.3       1 YZ9900     -0.2865 
      14 O5        -3.1397   -2.0129    3.9302 O.2       1 YZ9900     -0.2442 
      15 C10        2.6118    0.1708    3.7064 C.ar      1 YZ9900      0.0422 
      16 C9        -1.6268   -1.7566    2.2247 C.ar      1 YZ9900      0.1515 
      17 C8         2.0774    0.2140    5.0141 C.ar      1 YZ9900      0.1988 
      18 H31       -4.0745   -0.3339   -0.7311 H         1 YZ9900      0.0000 
      19 H32       -5.6718   -1.0855   -0.5036 H         1 YZ9900      0.0000 
      20 H33       -5.4486    0.6485   -0.1694 H         1 YZ9900      0.0000 
      21 H112      -5.5351   -0.6800    1.9032 H         1 YZ9900      0.0000 
      22 H113      -3.9545    0.1105    1.6897 H         1 YZ9900      0.0000 
      23 H6         2.2060   -0.4204    1.6388 H         1 YZ9900      0.0000 
      24 H5         0.0245   -1.5428    0.8878 H         1 YZ9900      0.0000 
      25 H4         0.3962   -0.2050    6.3994 H         1 YZ9900      0.0000 
      26 HO4        2.9425    1.6878    5.8323 H         1 YZ9900      0.0000 
      27 H10        3.6060    0.5447    3.5110 H         1 YZ9900      0.0000 
@<TRIPOS>BOND
       1       13       17 1        
       2        7       17 ar       
       3        7       10 ar       
       4        8       10 ar       
       5        8       11 ar       
       6       14       11 2        
       7       17       15 ar       
       8       10        9 ar       
       9       11       16 ar       
      10        2        4 1        
      11        2        1 1        
      12       15        5 ar       
      13        9        5 ar       
      14        9        6 ar       
      15       16        6 ar       
      16       16       12 1        
      17        4       12 1        
      18       12        3 2        
      19       18        1 1        
      20       19        1 1        
      21       20        1 1        
      22       21        2 1        
      23       22        2 1        
      24       23        5 1        
      25       24        6 1        
      26       25        7 1        
      27       26       13 1        
      28       27       15 1        
@<TRIPOS>SUBSTRUCTURE
 1 YZ9900 10 RESIDUE 4 A YZ9900 0 ROOT

