#        scan_R01_S0051_C0000_L00001_S0001_C0002_G0010_E0001.mol2
#        Mon Jun 19 14:42:17 2017
#        Descriptor:     10     2     5     2     1     4
#        Energy - RMSD - RMSD MassCentre:     -25.1652    999.9999    999.9999
#        Receptor:       1  Surface Point:    51  Conformer:     0
#        Ligand:         1  Surface Point:     1  Conformer:     2
#        BUDE Formal Charge: 0
#        ATOM Count: 27
#        Heavy ATOM Count: 17
@<TRIPOS>MOLECULE
pdb1gcz_ligA.pdb_scan_R01_S0051_C0000_L00001_S0001_C0002_G0010_E0001
27 28 1 0 0
SMALL
GASTEIGER
@<TRIPOS>ATOM
       1 C3        -3.7330   -6.8354   -0.5804 C.3       1 YZ9900      0.0513 
       2 C11       -2.2371   -6.6063   -0.3847 C.3       1 YZ9900      0.2089 
       3 O1         0.1540   -5.6594    0.1616 O.2       1 YZ9900     -0.2447 
       4 O2        -2.0225   -5.2998    0.1557 O.3       1 YZ9900     -0.4453 
       5 C6         2.3203   -1.3819    2.0326 C.ar      1 YZ9900      0.0063 
       6 C5         0.7727   -3.1680    1.2069 C.ar      1 YZ9900      0.0160 
       7 C4         0.1643    0.3015    2.5607 C.ar      1 YZ9900      0.0796 
       8 O3        -1.3721   -1.3821    1.7770 O.2       1 YZ9900     -0.4208 
       9 C2         1.0188   -1.8201    1.7663 C.ar      1 YZ9900      0.0353 
      10 C1        -0.0646   -0.9743    2.0316 C.ar      1 YZ9900      0.1519 
      11 C7        -1.5986   -2.6517    1.2505 C.ar      1 YZ9900      0.3521 
      12 C12       -0.7511   -4.9158    0.3982 C.2       1 YZ9900      0.3476 
      13 O4         1.6385    2.0020    3.3469 O.3       1 YZ9900     -0.2865 
      14 O5        -2.7510   -2.9891    1.0350 O.2       1 YZ9900     -0.2442 
      15 C10        2.5435   -0.1051    2.5617 C.ar      1 YZ9900      0.0422 
      16 C9        -0.4781   -3.5730    0.9573 C.ar      1 YZ9900      0.1515 
      17 C8         1.4644    0.7455    2.8293 C.ar      1 YZ9900      0.1988 
      18 H31       -4.1242   -6.0970   -1.2774 H         1 YZ9900      0.0000 
      19 H32       -3.8970   -7.8342   -0.9791 H         1 YZ9900      0.0000 
      20 H33       -4.2423   -6.7378    0.3760 H         1 YZ9900      0.0000 
      21 H112      -1.7283   -6.6897   -1.3428 H         1 YZ9900      0.0000 
      22 H113      -1.8421   -7.3516    0.3024 H         1 YZ9900      0.0000 
      23 H6         3.1611   -2.0289    1.8304 H         1 YZ9900      0.0000 
      24 H5         1.6152   -3.8130    1.0057 H         1 YZ9900      0.0000 
      25 H4        -0.6749    0.9505    2.7638 H         1 YZ9900      0.0000 
      26 HO4        0.7874    2.4556    3.4513 H         1 YZ9900      0.0000 
      27 H10        3.5580    0.2091    2.7583 H         1 YZ9900      0.0000 
@<TRIPOS>BOND
       1       13       17 1        
       2        7       17 ar       
       3        7       10 ar       
       4        8       10 ar       
       5        8       11 ar       
       6       14       11 2        
       7       17       15 ar       
       8       10        9 ar       
       9       11       16 ar       
      10        2        4 1        
      11        2        1 1        
      12       15        5 ar       
      13        9        5 ar       
      14        9        6 ar       
      15       16        6 ar       
      16       16       12 1        
      17        4       12 1        
      18       12        3 2        
      19       18        1 1        
      20       19        1 1        
      21       20        1 1        
      22       21        2 1        
      23       22        2 1        
      24       23        5 1        
      25       24        6 1        
      26       25        7 1        
      27       26       13 1        
      28       27       15 1        
@<TRIPOS>SUBSTRUCTURE
 1 YZ9900 10 RESIDUE 4 A YZ9900 0 ROOT

