#        scan_R01_S0051_C0000_L00001_S0001_C0002_G0010_E0001.mol2
#        Mon Jun 19 14:14:06 2017
#        Descriptor:      5     2     7     1     1     4
#        Energy - RMSD - RMSD MassCentre:     -22.9573    999.9999    999.9999
#        Receptor:       1  Surface Point:    51  Conformer:     0
#        Ligand:         1  Surface Point:     1  Conformer:     2
#        BUDE Formal Charge: 0
#        ATOM Count: 27
#        Heavy ATOM Count: 17
@<TRIPOS>MOLECULE
pdb1gcz_ligA.pdb_scan_R01_S0051_C0000_L00001_S0001_C0002_G0010_E0001
27 28 1 0 0
SMALL
GASTEIGER
@<TRIPOS>ATOM
       1 C3        -2.8401   -7.8991    0.0864 C.3       1 YZ9900      0.0513 
       2 C11       -1.7984   -7.3733    1.0698 C.3       1 YZ9900      0.2089 
       3 O1        -0.2191   -5.9155    2.5839 O.2       1 YZ9900     -0.2447 
       4 O2        -1.8367   -5.9438    1.0843 O.3       1 YZ9900     -0.4453 
       5 C6         0.7080   -0.9591    3.6162 C.ar      1 YZ9900      0.0063 
       6 C5        -0.1414   -3.1501    2.7526 C.ar      1 YZ9900      0.0160 
       7 C4        -1.0901    0.4238    1.9988 C.ar      1 YZ9900      0.0796 
       8 O3        -1.9464   -1.6560    1.1327 O.2       1 YZ9900     -0.4208 
       9 C2        -0.1631   -1.6706    2.7844 C.ar      1 YZ9900      0.0353 
      10 C1        -1.0666   -0.9757    1.9716 C.ar      1 YZ9900      0.1519 
      11 C7        -1.9222   -3.0485    1.1064 C.ar      1 YZ9900      0.3521 
      12 C12       -0.9793   -5.2957    1.9013 C.2       1 YZ9900      0.3476 
      13 O4        -0.2809    2.5098    2.8214 O.3       1 YZ9900     -0.2865 
      14 O5        -2.7009   -3.6247    0.3648 O.2       1 YZ9900     -0.2442 
      15 C10        0.6803    0.4404    3.6395 C.ar      1 YZ9900      0.0422 
      16 C9        -0.9809   -3.8167    1.9515 C.ar      1 YZ9900      0.1515 
      17 C8        -0.2208    1.1412    2.8292 C.ar      1 YZ9900      0.1988 
      18 H31       -2.6139   -7.5303   -0.9120 H         1 YZ9900      0.0000 
      19 H32       -2.8200   -8.9868    0.0852 H         1 YZ9900      0.0000 
      20 H33       -3.8274   -7.5542    0.3861 H         1 YZ9900      0.0000 
      21 H112      -0.8088   -7.7058    0.7633 H         1 YZ9900      0.0000 
      22 H113      -2.0162   -7.7514    2.0664 H         1 YZ9900      0.0000 
      23 H6         1.4077   -1.4884    4.2459 H         1 YZ9900      0.0000 
      24 H5         0.5593   -3.6769    3.3834 H         1 YZ9900      0.0000 
      25 H4        -1.7890    0.9555    1.3700 H         1 YZ9900      0.0000 
      26 HO4       -0.9473    2.8247    2.1908 H         1 YZ9900      0.0000 
      27 H10        1.3633    0.9658    4.2906 H         1 YZ9900      0.0000 
@<TRIPOS>BOND
       1       13       17 1        
       2        7       17 ar       
       3        7       10 ar       
       4        8       10 ar       
       5        8       11 ar       
       6       14       11 2        
       7       17       15 ar       
       8       10        9 ar       
       9       11       16 ar       
      10        2        4 1        
      11        2        1 1        
      12       15        5 ar       
      13        9        5 ar       
      14        9        6 ar       
      15       16        6 ar       
      16       16       12 1        
      17        4       12 1        
      18       12        3 2        
      19       18        1 1        
      20       19        1 1        
      21       20        1 1        
      22       21        2 1        
      23       22        2 1        
      24       23        5 1        
      25       24        6 1        
      26       25        7 1        
      27       26       13 1        
      28       27       15 1        
@<TRIPOS>SUBSTRUCTURE
 1 YZ9900 10 RESIDUE 4 A YZ9900 0 ROOT

