#        1GCZ_R01_S0001_C0000_L00005_S0001_C0004_G0010_E0001.mol2
#        Tue Jun  6 09:55:32 2017
#        Descriptor:      2     8    32     7     6    14
#        Energy - RMSD - RMSD MassCentre:     -68.0473    999.9999    999.9999
#        Receptor:       1  Surface Point:     1  Conformer:     0
#        Ligand:         5  Surface Point:     1  Conformer:     4
#        BUDE Formal Charge: 0
#        ATOM Count: 55
#        Heavy ATOM Count: 30
@<TRIPOS>MOLECULE
ZINC61464195_1GCZ_R01_S0001_C0000_L00005_S0001_C0004_G0010_E0001
 55 56 0 0 0
SMALL
USER_CHARGES
@<TRIPOS>ATOM
       1 C1         0.9703    0.0470   -1.0618 C.3       1 <0>        -0.1456 
       2 C2        -0.1090   -0.7067   -0.2899 C.3       1 <0>        -0.0579 
       3 C3         0.2439   -2.1904   -0.2379 C.3       1 <0>        -0.1456 
       4 C4        -0.1953   -0.1612    1.1153 C.ar      1 <0>        -0.0771 
       5 C5        -1.4049    0.4044    1.5358 C.ar      1 <0>        -0.0943 
       6 C6        -1.5513    0.8287    2.8619 C.ar      1 <0>        -0.0923 
       7 C7        -0.4989    0.6861    3.7739 C.ar      1 <0>        -0.1041 
       8 C8         0.7313    0.1702    3.3496 C.ar      1 <0>        -0.1315 
       9 C9         0.8808   -0.2203    2.0135 C.ar      1 <0>        -0.0969 
      10 S1        -0.7283    1.1668    5.4620 S.3       1 <0>        -0.0341 
      11 C10       -1.3487   -0.2528    6.4170 C.3       1 <0>        -0.1267 
      12 C11       -0.3401   -1.3753    6.3610 C.2       1 <0>         0.4864 
      13 O1        -0.5118   -2.2975    5.6207 O.2       1 <0>        -0.4815 
      14 O2         0.7561   -1.3370    7.1478 O.3       1 <0>        -0.3231 
      15 C12        1.6829   -2.4224    7.0601 C.3       1 <0>         0.0526 
      16 C13        1.0036   -3.6994    7.4936 C.2       1 <0>         0.5250 
      17 O3         0.9382   -4.6538    6.7204 O.2       1 <0>        -0.5082 
      18 N1         0.4759   -3.7929    8.7107 N.am      1 <0>        -0.5981 
      19 C14        0.5541   -2.6523    9.6348 C.3       1 <0>         0.0731 
      20 C15       -0.1851   -5.0368    9.1311 C.3       1 <0>         0.1010 
      21 C16       -1.4605   -4.7038    9.8678 C.2       1 <0>         0.4997 
      22 O4        -1.6754   -5.1917   10.9762 O.2       1 <0>        -0.5061 
      23 N2        -2.3508   -3.8830    9.3176 N.am      1 <0>        -0.6702 
      24 C17       -3.5459   -3.5709   10.0080 C.ar      1 <0>         0.1553 
      25 C18       -4.7632   -3.5311    9.3177 C.ar      1 <0>        -0.1106 
      26 C19       -5.9441   -3.2289   10.0062 C.ar      1 <0>        -0.0959 
      27 C20       -5.9106   -2.9591   11.3771 C.ar      1 <0>        -0.1208 
      28 C21       -4.6919   -2.9854   12.0658 C.ar      1 <0>        -0.0919 
      29 C22       -3.5113   -3.2952   11.3801 C.ar      1 <0>        -0.0639 
      30 Cl1       -1.9941   -3.3250   12.2315 Cl        1 <0>        -0.0632 
      31 H1         1.9308   -0.0922   -0.5702 H         1 <0>         0.0596 
      32 H2         1.0233   -0.3371   -2.0785 H         1 <0>         0.0563 
      33 H3         0.7247    1.1066   -1.0862 H         1 <0>         0.0575 
      34 H4        -1.0680   -0.5786   -0.7875 H         1 <0>         0.0784 
      35 H5        -0.5326   -2.7285    0.3018 H         1 <0>         0.0596 
      36 H6         1.1964   -2.3182    0.2724 H         1 <0>         0.0574 
      37 H7         0.3193   -2.5804   -1.2508 H         1 <0>         0.0563 
      38 H8        -2.2379    0.5056    0.8560 H         1 <0>         0.1285 
      39 H9        -2.4655    1.2664    3.2348 H         1 <0>         0.1293 
      40 H10        1.5402    0.0835    4.0599 H         1 <0>         0.1227 
      41 H11        1.8470   -0.5825    1.6947 H         1 <0>         0.1262 
      42 H12       -1.5020    0.0448    7.4523 H         1 <0>         0.1329 
      43 H13       -2.2916   -0.5919    5.9930 H         1 <0>         0.1329 
      44 H14        2.5340   -2.2267    7.7092 H         1 <0>         0.1063 
      45 H15        2.0257   -2.5255    6.0327 H         1 <0>         0.1054 
      46 H16        0.0388   -1.7983    9.2000 H         1 <0>         0.0686 
      47 H17        0.0838   -2.9185   10.5790 H         1 <0>         0.0794 
      48 H18        1.5976   -2.3974    9.8077 H         1 <0>         0.0778 
      49 H19       -0.4183   -5.6371    8.2542 H         1 <0>         0.1198 
      50 H20        0.4785   -5.5954    9.7880 H         1 <0>         0.1233 
      51 H21       -2.1733   -3.4828    8.4074 H         1 <0>         0.4142 
      52 H22       -4.7956   -3.7384    8.2582 H         1 <0>         0.1473 
      53 H23       -6.8832   -3.2061    9.4732 H         1 <0>         0.1337 
      54 H24       -6.8223   -2.7299   11.9085 H         1 <0>         0.1349 
      55 H25       -4.6634   -2.7707   13.1238 H         1 <0>         0.1385 
@<TRIPOS>BOND
       1        1        2 1        
       2        1       31 1        
       3        1       32 1        
       4        1       33 1        
       5        2        3 1        
       6        2        4 1        
       7        2       34 1        
       8        3       35 1        
       9        3       36 1        
      10        3       37 1        
      11        4        9 ar       
      12        4        5 ar       
      13        5        6 ar       
      14        5       38 1        
      15        6        7 ar       
      16        6       39 1        
      17        7        8 ar       
      18        7       10 1        
      19        8        9 ar       
      20        8       40 1        
      21        9       41 1        
      22       10       11 1        
      23       11       12 1        
      24       11       42 1        
      25       11       43 1        
      26       12       13 2        
      27       12       14 1        
      28       14       15 1        
      29       15       16 1        
      30       15       44 1        
      31       15       45 1        
      32       16       17 2        
      33       16       18 am       
      34       18       19 1        
      35       18       20 1        
      36       19       46 1        
      37       19       47 1        
      38       19       48 1        
      39       20       21 1        
      40       20       49 1        
      41       20       50 1        
      42       21       22 2        
      43       21       23 am       
      44       23       24 1        
      45       23       51 1        
      46       24       29 ar       
      47       24       25 ar       
      48       25       26 ar       
      49       25       52 1        
      50       26       27 ar       
      51       26       53 1        
      52       27       28 ar       
      53       27       54 1        
      54       28       29 ar       
      55       28       55 1        
      56       29       30 1        

