#        scan_R01_S0052_C0000_L00001_S0001_C0000_G0010_E0001.mol2
#        Mon Jun 19 14:14:07 2017
#        Descriptor:     16    22     4     1     3     4
#        Energy - RMSD - RMSD MassCentre:     -24.2687    999.9999    999.9999
#        Receptor:       1  Surface Point:    52  Conformer:     0
#        Ligand:         1  Surface Point:     1  Conformer:     0
#        BUDE Formal Charge: 0
#        ATOM Count: 27
#        Heavy ATOM Count: 17
@<TRIPOS>MOLECULE
pdb1gcz_ligA.pdb_scan_R01_S0052_C0000_L00001_S0001_C0000_G0010_E0001
27 28 1 0 0
SMALL
GASTEIGER
@<TRIPOS>ATOM
       1 C3        -6.0884    0.8571    1.6487 C.3       1 YZ9900      0.0513 
       2 C11       -4.9149    1.7882    1.5399 C.3       1 YZ9900      0.2089 
       3 O1        -3.5069    0.4159    4.3399 O.2       1 YZ9900     -0.2447 
       4 O2        -4.2788    1.9397    2.8715 O.3       1 YZ9900     -0.4453 
       5 C6         0.9662   -1.1518    2.0854 C.ar      1 YZ9900      0.0063 
       6 C5        -1.1447   -0.0187    2.8730 C.ar      1 YZ9900      0.0160 
       7 C4         1.8250    1.3765    0.8606 C.ar      1 YZ9900      0.0796 
       8 O3        -0.2209    2.3568    1.6620 O.2       1 YZ9900     -0.4208 
       9 C2         0.1710    0.0163    2.1627 C.ar      1 YZ9900      0.0353 
      10 C1         0.6061    1.2369    1.5611 C.ar      1 YZ9900      0.1519 
      11 C7        -1.4108    2.3323    2.2180 C.ar      1 YZ9900      0.3521 
      12 C12       -3.3131    1.1330    3.4059 C.2       1 YZ9900      0.3476 
      13 O4         3.7687    0.1772    0.1633 O.3       1 YZ9900     -0.2865 
      14 O5        -2.0493    3.3075    2.2102 O.2       1 YZ9900     -0.2442 
      15 C10        2.2055   -1.0649    1.3869 C.ar      1 YZ9900      0.0422 
      16 C9        -1.9276    1.1031    2.8338 C.ar      1 YZ9900      0.1515 
      17 C8         2.5899    0.1663    0.8091 C.ar      1 YZ9900      0.1988 
      18 H31       -5.7526   -0.1089    2.0259 H         1 YZ9900      0.0000 
      19 H32       -6.8240    1.2786    2.3337 H         1 YZ9900      0.0000 
      20 H33       -6.5405    0.7261    0.6656 H         1 YZ9900      0.0000 
      21 H112      -5.2553    2.7618    1.1871 H         1 YZ9900      0.0000 
      22 H113      -4.1905    1.3793    0.8355 H         1 YZ9900      0.0000 
      23 H6         0.6451   -2.0772    2.5400 H         1 YZ9900      0.0000 
      24 H5        -1.4676   -0.9035    3.4014 H         1 YZ9900      0.0000 
      25 H4         2.1479    2.3030    0.4092 H         1 YZ9900      0.0000 
      26 HO4        3.6906   -0.3192   -0.6547 H         1 YZ9900      0.0000 
      27 H10        2.8445   -1.9313    1.3000 H         1 YZ9900      0.0000 
@<TRIPOS>BOND
       1       13       17 1        
       2        7       17 ar       
       3        7       10 ar       
       4        8       10 ar       
       5        8       11 ar       
       6       14       11 2        
       7       17       15 ar       
       8       10        9 ar       
       9       11       16 ar       
      10        2        4 1        
      11        2        1 1        
      12       15        5 ar       
      13        9        5 ar       
      14        9        6 ar       
      15       16        6 ar       
      16       16       12 1        
      17        4       12 1        
      18       12        3 2        
      19       18        1 1        
      20       19        1 1        
      21       20        1 1        
      22       21        2 1        
      23       22        2 1        
      24       23        5 1        
      25       24        6 1        
      26       25        7 1        
      27       26       13 1        
      28       27       15 1        
@<TRIPOS>SUBSTRUCTURE
 1 YZ9900 10 RESIDUE 4 A YZ9900 0 ROOT

