#        scan_R01_S0052_C0000_L00001_S0001_C0002_G0010_E0001.mol2
#        Mon Jun 19 14:42:18 2017
#        Descriptor:      5     1    19     3     3     5
#        Energy - RMSD - RMSD MassCentre:     -33.2254    999.9999    999.9999
#        Receptor:       1  Surface Point:    52  Conformer:     0
#        Ligand:         1  Surface Point:     1  Conformer:     2
#        BUDE Formal Charge: 0
#        ATOM Count: 27
#        Heavy ATOM Count: 17
@<TRIPOS>MOLECULE
pdb1gcz_ligA.pdb_scan_R01_S0052_C0000_L00001_S0001_C0002_G0010_E0001
27 28 1 0 0
SMALL
GASTEIGER
@<TRIPOS>ATOM
       1 C3         8.1156    2.8949    2.3506 C.3       1 YZ9900      0.0513 
       2 C11        6.9840    3.5067    3.1713 C.3       1 YZ9900      0.2089 
       3 O1         4.7015    4.1050    4.3308 O.2       1 YZ9900     -0.2447 
       4 O2         5.7826    2.7620    2.9547 O.3       1 YZ9900     -0.4453 
       5 C6        -0.1565    2.4116    4.4835 C.ar      1 YZ9900      0.0063 
       6 C5         2.2782    2.7913    4.0410 C.ar      1 YZ9900      0.0160 
       7 C4        -0.1683    0.2135    2.7718 C.ar      1 YZ9900      0.0796 
       8 O3         2.1756    0.5321    2.3091 O.2       1 YZ9900     -0.4208 
       9 C2         1.0230    2.0355    3.8322 C.ar      1 YZ9900      0.0353 
      10 C1         1.0171    0.9310    2.9720 C.ar      1 YZ9900      0.1519 
      11 C7         3.3545    1.2467    2.5090 C.ar      1 YZ9900      0.3521 
      12 C12        4.6664    3.1582    3.6025 C.2       1 YZ9900      0.3476 
      13 O4        -2.4866   -0.1475    3.1935 O.3       1 YZ9900     -0.2865 
      14 O5         4.3575    0.8806    1.9189 O.2       1 YZ9900     -0.2442 
      15 C10       -1.3391    1.6906    4.2797 C.ar      1 YZ9900      0.0422 
      16 C9         3.3985    2.4194    3.4108 C.ar      1 YZ9900      0.1515 
      17 C8        -1.3516    0.5852    3.4209 C.ar      1 YZ9900      0.1988 
      18 H31        7.8603    2.9376    1.2937 H         1 YZ9900      0.0000 
      19 H32        9.0327    3.4535    2.5257 H         1 YZ9900      0.0000 
      20 H33        8.2592    1.8583    2.6481 H         1 YZ9900      0.0000 
      21 H112       6.8300    4.5393    2.8649 H         1 YZ9900      0.0000 
      22 H113       7.2435    3.4760    4.2274 H         1 YZ9900      0.0000 
      23 H6        -0.1595    3.2626    5.1485 H         1 YZ9900      0.0000 
      24 H5         2.2723    3.6419    4.7066 H         1 YZ9900      0.0000 
      25 H4        -0.1678   -0.6379    2.1073 H         1 YZ9900      0.0000 
      26 HO4       -2.3172   -0.8629    2.5607 H         1 YZ9900      0.0000 
      27 H10       -2.2360    2.0017    4.7946 H         1 YZ9900      0.0000 
@<TRIPOS>BOND
       1       13       17 1        
       2        7       17 ar       
       3        7       10 ar       
       4        8       10 ar       
       5        8       11 ar       
       6       14       11 2        
       7       17       15 ar       
       8       10        9 ar       
       9       11       16 ar       
      10        2        4 1        
      11        2        1 1        
      12       15        5 ar       
      13        9        5 ar       
      14        9        6 ar       
      15       16        6 ar       
      16       16       12 1        
      17        4       12 1        
      18       12        3 2        
      19       18        1 1        
      20       19        1 1        
      21       20        1 1        
      22       21        2 1        
      23       22        2 1        
      24       23        5 1        
      25       24        6 1        
      26       25        7 1        
      27       26       13 1        
      28       27       15 1        
@<TRIPOS>SUBSTRUCTURE
 1 YZ9900 10 RESIDUE 4 A YZ9900 0 ROOT

