#        scan_R01_S0052_C0000_L00001_S0001_C0003_G0010_E0001.mol2
#        Mon Jun 19 14:42:19 2017
#        Descriptor:     21    17    36     3     3     4
#        Energy - RMSD - RMSD MassCentre:     -31.9592    999.9999    999.9999
#        Receptor:       1  Surface Point:    52  Conformer:     0
#        Ligand:         1  Surface Point:     1  Conformer:     3
#        BUDE Formal Charge: 0
#        ATOM Count: 27
#        Heavy ATOM Count: 17
@<TRIPOS>MOLECULE
pdb1gcz_ligA.pdb_scan_R01_S0052_C0000_L00001_S0001_C0003_G0010_E0001
27 28 1 0 0
SMALL
GASTEIGER
@<TRIPOS>ATOM
       1 C3         7.5350    3.4281    2.6473 C.3       1 YZ9900      0.0513 
       2 C11        7.4000    1.9097    2.5775 C.3       1 YZ9900      0.2089 
       3 O1         5.3066    2.5726    4.0232 O.2       1 YZ9900     -0.2447 
       4 O2         6.0610    1.5675    2.2103 O.3       1 YZ9900     -0.4453 
       5 C6         0.1870    2.0484    3.9418 C.ar      1 YZ9900      0.0063 
       6 C5         2.6478    2.0053    3.4834 C.ar      1 YZ9900      0.0160 
       7 C4        -0.3163    0.6161    1.6059 C.ar      1 YZ9900      0.0796 
       8 O3         2.0422    0.5439    1.1144 O.2       1 YZ9900     -0.4208 
       9 C2         1.2539    1.6622    3.1235 C.ar      1 YZ9900      0.0353 
      10 C1         1.0010    0.9425    1.9497 C.ar      1 YZ9900      0.1519 
      11 C7         3.3524    0.8692    1.4575 C.ar      1 YZ9900      0.3521 
      12 C12        5.0604    1.9593    3.0276 C.2       1 YZ9900      0.3476 
      13 O4        -2.6594    0.6576    2.0430 O.3       1 YZ9900     -0.2865 
      14 O5         4.2494    0.5106    0.7123 O.2       1 YZ9900     -0.2442 
      15 C10       -1.1284    1.7194    3.5933 C.ar      1 YZ9900      0.0422 
      16 C9         3.6579    1.6288    2.6904 C.ar      1 YZ9900      0.1515 
      17 C8        -1.3879    0.9999    2.4209 C.ar      1 YZ9900      0.1988 
      18 H31        6.8527    3.8180    3.3999 H         1 YZ9900      0.0000 
      19 H32        8.5572    3.6889    2.9136 H         1 YZ9900      0.0000 
      20 H33        7.2912    3.8582    1.6782 H         1 YZ9900      0.0000 
      21 H112       7.6299    1.4795    3.5500 H         1 YZ9900      0.0000 
      22 H113       8.0907    1.5174    1.8342 H         1 YZ9900      0.0000 
      23 H6         0.3745    2.6039    4.8489 H         1 YZ9900      0.0000 
      24 H5         2.8324    2.5608    4.3910 H         1 YZ9900      0.0000 
      25 H4        -0.5064    0.0607    0.6993 H         1 YZ9900      0.0000 
      26 HO4       -2.6540    0.1785    1.1995 H         1 YZ9900      0.0000 
      27 H10       -1.9340    2.0295    4.2423 H         1 YZ9900      0.0000 
@<TRIPOS>BOND
       1       13       17 1        
       2        7       17 ar       
       3        7       10 ar       
       4        8       10 ar       
       5        8       11 ar       
       6       14       11 2        
       7       17       15 ar       
       8       10        9 ar       
       9       11       16 ar       
      10        2        4 1        
      11        2        1 1        
      12       15        5 ar       
      13        9        5 ar       
      14        9        6 ar       
      15       16        6 ar       
      16       16       12 1        
      17        4       12 1        
      18       12        3 2        
      19       18        1 1        
      20       19        1 1        
      21       20        1 1        
      22       21        2 1        
      23       22        2 1        
      24       23        5 1        
      25       24        6 1        
      26       25        7 1        
      27       26       13 1        
      28       27       15 1        
@<TRIPOS>SUBSTRUCTURE
 1 YZ9900 10 RESIDUE 4 A YZ9900 0 ROOT

