#        scan_R01_S0053_C0000_L00001_S0001_C0000_G0010_E0001.mol2
#        Mon Jun 19 14:42:19 2017
#        Descriptor:     22    14    21     1     1     5
#        Energy - RMSD - RMSD MassCentre:     -52.3937    999.9999    999.9999
#        Receptor:       1  Surface Point:    53  Conformer:     0
#        Ligand:         1  Surface Point:     1  Conformer:     0
#        BUDE Formal Charge: 0
#        ATOM Count: 27
#        Heavy ATOM Count: 17
@<TRIPOS>MOLECULE
pdb1gcz_ligA.pdb_scan_R01_S0053_C0000_L00001_S0001_C0000_G0010_E0001
27 28 1 0 0
SMALL
GASTEIGER
@<TRIPOS>ATOM
       1 C3         3.8468   -2.3223    3.8917 C.3       1 YZ9900      0.0513 
       2 C11        2.9405   -1.7761    2.8259 C.3       1 YZ9900      0.2089 
       3 O1         0.5266   -4.0588    3.6433 O.2       1 YZ9900     -0.2447 
       4 O2         1.9607   -2.8169    2.4289 O.3       1 YZ9900     -0.4453 
       5 C6        -3.2331   -0.5942    4.8310 C.ar      1 YZ9900      0.0063 
       6 C5        -1.3068   -1.9412    3.9170 C.ar      1 YZ9900      0.0160 
       7 C4        -3.2294    1.0142    2.3726 C.ar      1 YZ9900      0.0796 
       8 O3        -1.3942   -0.3354    1.5982 O.2       1 YZ9900     -0.4208 
       9 C2        -2.3136   -0.8433    3.7843 C.ar      1 YZ9900      0.0353 
      10 C1        -2.3278   -0.0504    2.5958 C.ar      1 YZ9900      0.1519 
      11 C7        -0.4558   -1.2463    1.7216 C.ar      1 YZ9900      0.3521 
      12 C12        0.7549   -3.0651    3.0233 C.2       1 YZ9900      0.3476 
      13 O4        -5.0382    2.2174    3.3641 O.3       1 YZ9900     -0.2865 
      14 O5         0.3102   -1.3778    0.8529 O.2       1 YZ9900     -0.2442 
      15 C10       -4.1632    0.4715    4.6564 C.ar      1 YZ9900      0.0422 
      16 C9        -0.3710   -2.0796    2.9281 C.ar      1 YZ9900      0.1515 
      17 C8        -4.1355    1.2262    3.4618 C.ar      1 YZ9900      0.1988 
      18 H31        3.2519   -2.6367    4.7493 H         1 YZ9900      0.0000 
      19 H32        4.3963   -3.1774    3.4979 H         1 YZ9900      0.0000 
      20 H33        4.5505   -1.5496    4.2012 H         1 YZ9900      0.0000 
      21 H112       3.5334   -1.4857    1.9586 H         1 YZ9900      0.0000 
      22 H113       2.4096   -0.9055    3.2112 H         1 YZ9900      0.0000 
      23 H6        -3.2301   -1.1911    5.7308 H         1 YZ9900      0.0000 
      24 H5        -1.3179   -2.6054    4.7684 H         1 YZ9900      0.0000 
      25 H4        -3.2349    1.6086    1.4710 H         1 YZ9900      0.0000 
      26 HO4       -4.7977    2.9298    3.9609 H         1 YZ9900      0.0000 
      27 H10       -4.8821    0.7000    5.4294 H         1 YZ9900      0.0000 
@<TRIPOS>BOND
       1       13       17 1        
       2        7       17 ar       
       3        7       10 ar       
       4        8       10 ar       
       5        8       11 ar       
       6       14       11 2        
       7       17       15 ar       
       8       10        9 ar       
       9       11       16 ar       
      10        2        4 1        
      11        2        1 1        
      12       15        5 ar       
      13        9        5 ar       
      14        9        6 ar       
      15       16        6 ar       
      16       16       12 1        
      17        4       12 1        
      18       12        3 2        
      19       18        1 1        
      20       19        1 1        
      21       20        1 1        
      22       21        2 1        
      23       22        2 1        
      24       23        5 1        
      25       24        6 1        
      26       25        7 1        
      27       26       13 1        
      28       27       15 1        
@<TRIPOS>SUBSTRUCTURE
 1 YZ9900 10 RESIDUE 4 A YZ9900 0 ROOT

