#        scan_R01_S0053_C0000_L00001_S0001_C0000_G0010_E0001.mol2
#        Mon Jun 19 14:14:09 2017
#        Descriptor:     26    10     8     2     3     4
#        Energy - RMSD - RMSD MassCentre:     -47.3242    999.9999    999.9999
#        Receptor:       1  Surface Point:    53  Conformer:     0
#        Ligand:         1  Surface Point:     1  Conformer:     0
#        BUDE Formal Charge: 0
#        ATOM Count: 27
#        Heavy ATOM Count: 17
@<TRIPOS>MOLECULE
pdb1gcz_ligA.pdb_scan_R01_S0053_C0000_L00001_S0001_C0000_G0010_E0001
27 28 1 0 0
SMALL
GASTEIGER
@<TRIPOS>ATOM
       1 C3        -2.3852   -2.6700    4.6225 C.3       1 YZ9900      0.0513 
       2 C11       -1.3074   -2.4482    3.6002 C.3       1 YZ9900      0.2089 
       3 O1        -3.2713   -0.1818    1.9532 O.2       1 YZ9900     -0.2447 
       4 O2        -1.9128   -1.9349    2.3469 O.3       1 YZ9900     -0.4453 
       5 C6         0.0106    3.8948    2.3516 C.ar      1 YZ9900      0.0063 
       6 C5        -1.1629    1.6760    2.1076 C.ar      1 YZ9900      0.0160 
       7 C4         2.4478    2.6886    1.2402 C.ar      1 YZ9900      0.0796 
       8 O3         1.2314    0.6215    1.0500 O.2       1 YZ9900     -0.4208 
       9 C2         0.0509    2.5365    1.9563 C.ar      1 YZ9900      0.0353 
      10 C1         1.2456    1.9680    1.4172 C.ar      1 YZ9900      0.1519 
      11 C7         0.2011   -0.1712    1.2391 C.ar      1 YZ9900      0.3521 
      12 C12       -2.1676   -0.6261    2.0455 C.2       1 YZ9900      0.3476 
      13 O4         3.4406    4.8395    1.5408 O.3       1 YZ9900     -0.2865 
      14 O5         0.3017   -1.2947    0.9451 O.2       1 YZ9900     -0.2442 
      15 C10        1.1991    4.6659    2.1958 C.ar      1 YZ9900      0.0422 
      16 C9        -1.0494    0.3447    1.8110 C.ar      1 YZ9900      0.1515 
      17 C8         2.3548    4.0559    1.6578 C.ar      1 YZ9900      0.1988 
      18 H31       -2.9113   -1.7330    4.8058 H         1 YZ9900      0.0000 
      19 H32       -3.0891   -3.4152    4.2520 H         1 YZ9900      0.0000 
      20 H33       -1.9375   -3.0232    5.5514 H         1 YZ9900      0.0000 
      21 H112      -0.7986   -3.3908    3.3984 H         1 YZ9900      0.0000 
      22 H113      -0.5893   -1.7218    3.9809 H         1 YZ9900      0.0000 
      23 H6        -0.8897    4.3320    2.7572 H         1 YZ9900      0.0000 
      24 H5        -2.1017    2.0928    2.4411 H         1 YZ9900      0.0000 
      25 H4         3.3470    2.2523    0.8310 H         1 YZ9900      0.0000 
      26 HO4        3.7980    5.0243    2.4124 H         1 YZ9900      0.0000 
      27 H10        1.2163    5.7061    2.4861 H         1 YZ9900      0.0000 
@<TRIPOS>BOND
       1       13       17 1        
       2        7       17 ar       
       3        7       10 ar       
       4        8       10 ar       
       5        8       11 ar       
       6       14       11 2        
       7       17       15 ar       
       8       10        9 ar       
       9       11       16 ar       
      10        2        4 1        
      11        2        1 1        
      12       15        5 ar       
      13        9        5 ar       
      14        9        6 ar       
      15       16        6 ar       
      16       16       12 1        
      17        4       12 1        
      18       12        3 2        
      19       18        1 1        
      20       19        1 1        
      21       20        1 1        
      22       21        2 1        
      23       22        2 1        
      24       23        5 1        
      25       24        6 1        
      26       25        7 1        
      27       26       13 1        
      28       27       15 1        
@<TRIPOS>SUBSTRUCTURE
 1 YZ9900 10 RESIDUE 4 A YZ9900 0 ROOT

