#        scan_R01_S0053_C0000_L00001_S0001_C0002_G0010_E0001.mol2
#        Mon Jun 19 14:42:20 2017
#        Descriptor:      9    18    20     2     2     4
#        Energy - RMSD - RMSD MassCentre:     -51.9484    999.9999    999.9999
#        Receptor:       1  Surface Point:    53  Conformer:     0
#        Ligand:         1  Surface Point:     1  Conformer:     2
#        BUDE Formal Charge: 0
#        ATOM Count: 27
#        Heavy ATOM Count: 17
@<TRIPOS>MOLECULE
pdb1gcz_ligA.pdb_scan_R01_S0053_C0000_L00001_S0001_C0002_G0010_E0001
27 28 1 0 0
SMALL
GASTEIGER
@<TRIPOS>ATOM
       1 C3        -7.2000   -1.6726    1.9193 C.3       1 YZ9900      0.0513 
       2 C11       -6.4817   -0.3267    1.9478 C.3       1 YZ9900      0.2089 
       3 O1        -4.7358    1.6386    1.9918 O.2       1 YZ9900     -0.2447 
       4 O2        -5.0679   -0.5418    1.9485 O.3       1 YZ9900     -0.4453 
       5 C6         0.3653    2.3231    2.0224 C.ar      1 YZ9900      0.0063 
       6 C5        -1.9722    1.4271    1.9971 C.ar      1 YZ9900      0.0160 
       7 C4         1.4022   -0.2623    1.9759 C.ar      1 YZ9900      0.0796 
       8 O3        -0.8262   -1.1804    1.9506 O.2       1 YZ9900     -0.4208 
       9 C2        -0.5056    1.2287    1.9982 C.ar      1 YZ9900      0.0353 
      10 C1         0.0153   -0.0705    1.9749 C.ar      1 YZ9900      0.1519 
      11 C7        -2.2059   -0.9884    1.9496 C.ar      1 YZ9900      0.3521 
      12 C12       -4.2626    0.5415    1.9722 C.2       1 YZ9900      0.3476 
      13 O4         3.6278    0.5915    2.0000 O.3       1 YZ9900     -0.2865 
      14 O5        -2.9249   -1.9737    1.9281 O.2       1 YZ9900     -0.2442 
      15 C10        1.7513    2.1257    2.0233 C.ar      1 YZ9900      0.0422 
      16 C9        -2.7926    0.3701    1.9739 C.ar      1 YZ9900      0.1515 
      17 C8         2.2785    0.8291    2.0000 C.ar      1 YZ9900      0.1988 
      18 H31       -6.9312   -2.2453    2.8046 H         1 YZ9900      0.0000 
      19 H32       -8.2755   -1.5087    1.9054 H         1 YZ9900      0.0000 
      20 H33       -6.9047   -2.2218    1.0278 H         1 YZ9900      0.0000 
      21 H112      -6.7654    0.2177    2.8461 H         1 YZ9900      0.0000 
      22 H113      -6.7594    0.2521    1.0694 H         1 YZ9900      0.0000 
      23 H6        -0.0294    3.3283    2.0405 H         1 YZ9900      0.0000 
      24 H5        -2.3642    2.4333    2.0152 H         1 YZ9900      0.0000 
      25 H4         1.7994   -1.2665    1.9578 H         1 YZ9900      0.0000 
      26 HO4        3.8128   -0.3607    2.0000 H         1 YZ9900      0.0000 
      27 H10        2.4018    2.9876    2.0422 H         1 YZ9900      0.0000 
@<TRIPOS>BOND
       1       13       17 1        
       2        7       17 ar       
       3        7       10 ar       
       4        8       10 ar       
       5        8       11 ar       
       6       14       11 2        
       7       17       15 ar       
       8       10        9 ar       
       9       11       16 ar       
      10        2        4 1        
      11        2        1 1        
      12       15        5 ar       
      13        9        5 ar       
      14        9        6 ar       
      15       16        6 ar       
      16       16       12 1        
      17        4       12 1        
      18       12        3 2        
      19       18        1 1        
      20       19        1 1        
      21       20        1 1        
      22       21        2 1        
      23       22        2 1        
      24       23        5 1        
      25       24        6 1        
      26       25        7 1        
      27       26       13 1        
      28       27       15 1        
@<TRIPOS>SUBSTRUCTURE
 1 YZ9900 10 RESIDUE 4 A YZ9900 0 ROOT

