#        scan_R01_S0053_C0000_L00001_S0001_C0003_G0010_E0001.mol2
#        Mon Jun 19 14:42:21 2017
#        Descriptor:     25    17    18     1     2     4
#        Energy - RMSD - RMSD MassCentre:     -52.9874    999.9999    999.9999
#        Receptor:       1  Surface Point:    53  Conformer:     0
#        Ligand:         1  Surface Point:     1  Conformer:     3
#        BUDE Formal Charge: 0
#        ATOM Count: 27
#        Heavy ATOM Count: 17
@<TRIPOS>MOLECULE
pdb1gcz_ligA.pdb_scan_R01_S0053_C0000_L00001_S0001_C0003_G0010_E0001
27 28 1 0 0
SMALL
GASTEIGER
@<TRIPOS>ATOM
       1 C3        -7.1920   -2.9993    0.7019 C.3       1 YZ9900      0.0513 
       2 C11       -7.2302   -1.7769    1.6146 C.3       1 YZ9900      0.2089 
       3 O1        -5.0197   -2.9662    2.3963 O.2       1 YZ9900     -0.2447 
       4 O2        -5.9535   -1.1328    1.6009 O.3       1 YZ9900     -0.4453 
       5 C6         0.0019   -1.9416    2.8701 C.ar      1 YZ9900      0.0063 
       6 C5        -2.4646   -1.8931    2.4445 C.ar      1 YZ9900      0.0160 
       7 C4         0.2484    0.6905    1.9910 C.ar      1 YZ9900      0.0796 
       8 O3        -2.1211    0.7936    1.5624 O.2       1 YZ9900     -0.4208 
       9 C2        -1.1332   -1.2468    2.4393 C.ar      1 YZ9900      0.0353 
      10 C1        -1.0094    0.0758    1.9975 C.ar      1 YZ9900      0.1519 
      11 C7        -3.3721    0.1810    1.5693 C.ar      1 YZ9900      0.3521 
      12 C12       -4.8836   -1.8386    2.0248 C.2       1 YZ9900      0.3476 
      13 O4         2.5971    0.6436    2.3964 O.3       1 YZ9900     -0.2865 
      14 O5        -4.3326    0.8274    1.1843 O.2       1 YZ9900     -0.2442 
      15 C10        1.2574   -1.3221    2.8615 C.ar      1 YZ9900      0.0422 
      16 C9        -3.5413   -1.2154    2.0293 C.ar      1 YZ9900      0.1515 
      17 C8         1.3879    0.0002    2.4210 C.ar      1 YZ9900      0.1988 
      18 H31       -6.4409   -3.6982    1.0642 H         1 YZ9900      0.0000 
      19 H32       -8.1672   -3.4816    0.7019 H         1 YZ9900      0.0000 
      20 H33       -6.9407   -2.6880   -0.3098 H         1 YZ9900      0.0000 
      21 H112      -7.4676   -2.0885    2.6295 H         1 YZ9900      0.0000 
      22 H113      -7.9896   -1.0828    1.2606 H         1 YZ9900      0.0000 
      23 H6        -0.0859   -2.9622    3.2122 H         1 YZ9900      0.0000 
      24 H5        -2.5496   -2.9137    2.7872 H         1 YZ9900      0.0000 
      25 H4         0.3389    1.7110    1.6493 H         1 YZ9900      0.0000 
      26 HO4        2.5045    1.5439    2.0473 H         1 YZ9900      0.0000 
      27 H10        2.1179   -1.8806    3.1992 H         1 YZ9900      0.0000 
@<TRIPOS>BOND
       1       13       17 1        
       2        7       17 ar       
       3        7       10 ar       
       4        8       10 ar       
       5        8       11 ar       
       6       14       11 2        
       7       17       15 ar       
       8       10        9 ar       
       9       11       16 ar       
      10        2        4 1        
      11        2        1 1        
      12       15        5 ar       
      13        9        5 ar       
      14        9        6 ar       
      15       16        6 ar       
      16       16       12 1        
      17        4       12 1        
      18       12        3 2        
      19       18        1 1        
      20       19        1 1        
      21       20        1 1        
      22       21        2 1        
      23       22        2 1        
      24       23        5 1        
      25       24        6 1        
      26       25        7 1        
      27       26       13 1        
      28       27       15 1        
@<TRIPOS>SUBSTRUCTURE
 1 YZ9900 10 RESIDUE 4 A YZ9900 0 ROOT

