#        1GCZ_R01_S0001_C0000_L00005_S0001_C0004_G0010_E0001.mol2
#        Tue Jun  6 14:05:40 2017
#        Descriptor:      3     6    30     7     5    15
#        Energy - RMSD - RMSD MassCentre:     -67.7608    999.9999    999.9999
#        Receptor:       1  Surface Point:     1  Conformer:     0
#        Ligand:         5  Surface Point:     1  Conformer:     4
#        BUDE Formal Charge: 0
#        ATOM Count: 55
#        Heavy ATOM Count: 30
@<TRIPOS>MOLECULE
ZINC61464195_1GCZ_R01_S0001_C0000_L00005_S0001_C0004_G0010_E0001
 55 56 0 0 0
SMALL
USER_CHARGES
@<TRIPOS>ATOM
       1 C1         0.2914    0.8382    0.5548 C.3       1 <0>        -0.1456 
       2 C2        -0.7937    0.0505    1.2832 C.3       1 <0>        -0.0579 
       3 C3        -0.7451   -1.4100    0.8436 C.3       1 <0>        -0.1456 
       4 C4        -0.5615    0.1348    2.7727 C.ar      1 <0>        -0.0771 
       5 C5        -1.5567    0.7138    3.5690 C.ar      1 <0>        -0.0943 
       6 C6        -1.4188    0.7182    4.9622 C.ar      1 <0>        -0.0923 
       7 C7        -0.2954    0.1419    5.5669 C.ar      1 <0>        -0.1041 
       8 C8         0.7292   -0.3924    4.7769 C.ar      1 <0>        -0.1315 
       9 C9         0.5997   -0.3624    3.3832 C.ar      1 <0>        -0.0969 
      10 S1        -0.1736    0.0982    7.3323 S.3       1 <0>        -0.0341 
      11 C10       -0.9226   -1.4400    7.9531 C.3       1 <0>        -0.1267 
      12 C11       -0.1817   -2.6256    7.3824 C.2       1 <0>         0.4864 
      13 O1        -0.6430   -3.2330    6.4624 O.2       1 <0>        -0.4815 
      14 O2         1.0024   -2.9995    7.9117 O.3       1 <0>        -0.3231 
      15 C12        1.6670   -4.1282    7.3380 C.3       1 <0>         0.0526 
      16 C13        0.8137   -5.3605    7.5214 C.2       1 <0>         0.5250 
      17 O3         0.4441   -6.0036    6.5403 O.2       1 <0>        -0.5082 
      18 N1         0.4616   -5.7507    8.7430 N.am      1 <0>        -0.5981 
      19 C14        0.9034   -4.9821    9.9156 C.3       1 <0>         0.0731 
      20 C15       -0.3692   -6.9505    8.9198 C.3       1 <0>         0.1010 
      21 C16       -1.4291   -6.6788    9.9605 C.2       1 <0>         0.4997 
      22 O4        -1.5742   -7.4516   10.9063 O.2       1 <0>        -0.5061 
      23 N2        -2.2052   -5.6039    9.8538 N.am      1 <0>        -0.6702 
      24 C17       -3.1983   -5.3493   10.8291 C.ar      1 <0>         0.1553 
      25 C18       -4.4697   -4.9143   10.4365 C.ar      1 <0>        -0.1106 
      26 C19       -5.4513   -4.6704   11.4044 C.ar      1 <0>        -0.0959 
      27 C20       -5.1640   -4.8519   12.7601 C.ar      1 <0>        -0.1208 
      28 C21       -3.8887   -5.2739   13.1546 C.ar      1 <0>        -0.0919 
      29 C22       -2.9085   -5.5257   12.1873 C.ar      1 <0>        -0.0639 
      30 Cl1       -1.3211   -6.0465   12.6737 Cl        1 <0>        -0.0632 
      31 H1         1.2650    0.4105    0.7843 H         1 <0>         0.0596 
      32 H2         0.1164    0.7886   -0.5180 H         1 <0>         0.0563 
      33 H3         0.2648    1.8764    0.8794 H         1 <0>         0.0575 
      34 H4        -1.7690    0.4695    1.0446 H         1 <0>         0.0784 
      35 H5        -1.5272   -1.9680    1.3542 H         1 <0>         0.0596 
      36 H6         0.2258   -1.8317    1.0955 H         1 <0>         0.0574 
      37 H7        -0.8991   -1.4697   -0.2318 H         1 <0>         0.0563 
      38 H8        -2.4420    1.1459    3.1266 H         1 <0>         0.1285 
      39 H9        -2.1608    1.1482    5.6187 H         1 <0>         0.1293 
      40 H10        1.5986   -0.8168    5.2569 H         1 <0>         0.1227 
      41 H11        1.4153   -0.7464    2.7884 H         1 <0>         0.1262 
      42 H12       -0.8595   -1.4623    9.0391 H         1 <0>         0.1329 
      43 H13       -1.9662   -1.4846    7.6488 H         1 <0>         0.1329 
      44 H14        2.6256   -4.2749    7.8316 H         1 <0>         0.1063 
      45 H15        1.8280   -3.9542    6.2762 H         1 <0>         0.1054 
      46 H16        0.5141   -3.9682    9.8514 H         1 <0>         0.0686 
      47 H17        0.5319   -5.4574   10.8209 H         1 <0>         0.0794 
      48 H18        1.9908   -4.9528    9.9405 H         1 <0>         0.0778 
      49 H19       -0.8448   -7.2041    7.9746 H         1 <0>         0.1198 
      50 H20        0.2561   -7.7791    9.2459 H         1 <0>         0.1233 
      51 H21       -2.0851   -4.9699    9.0768 H         1 <0>         0.4142 
      52 H22       -4.6979   -4.7719    9.3905 H         1 <0>         0.1473 
      53 H23       -6.4339   -4.3421   11.0990 H         1 <0>         0.1337 
      54 H24       -5.9228   -4.6674   13.5060 H         1 <0>         0.1349 
      55 H25       -3.6631   -5.4083   14.2022 H         1 <0>         0.1385 
@<TRIPOS>BOND
       1        1        2 1        
       2        1       31 1        
       3        1       32 1        
       4        1       33 1        
       5        2        3 1        
       6        2        4 1        
       7        2       34 1        
       8        3       35 1        
       9        3       36 1        
      10        3       37 1        
      11        4        9 ar       
      12        4        5 ar       
      13        5        6 ar       
      14        5       38 1        
      15        6        7 ar       
      16        6       39 1        
      17        7        8 ar       
      18        7       10 1        
      19        8        9 ar       
      20        8       40 1        
      21        9       41 1        
      22       10       11 1        
      23       11       12 1        
      24       11       42 1        
      25       11       43 1        
      26       12       13 2        
      27       12       14 1        
      28       14       15 1        
      29       15       16 1        
      30       15       44 1        
      31       15       45 1        
      32       16       17 2        
      33       16       18 am       
      34       18       19 1        
      35       18       20 1        
      36       19       46 1        
      37       19       47 1        
      38       19       48 1        
      39       20       21 1        
      40       20       49 1        
      41       20       50 1        
      42       21       22 2        
      43       21       23 am       
      44       23       24 1        
      45       23       51 1        
      46       24       29 ar       
      47       24       25 ar       
      48       25       26 ar       
      49       25       52 1        
      50       26       27 ar       
      51       26       53 1        
      52       27       28 ar       
      53       27       54 1        
      54       28       29 ar       
      55       28       55 1        
      56       29       30 1        

