#        scan_R01_S0053_C0000_L00001_S0001_C0003_G0010_E0001.mol2
#        Mon Jun 19 14:14:10 2017
#        Descriptor:     10    18    20     3     3     4
#        Energy - RMSD - RMSD MassCentre:     -44.4007    999.9999    999.9999
#        Receptor:       1  Surface Point:    53  Conformer:     0
#        Ligand:         1  Surface Point:     1  Conformer:     3
#        BUDE Formal Charge: 0
#        ATOM Count: 27
#        Heavy ATOM Count: 17
@<TRIPOS>MOLECULE
pdb1gcz_ligA.pdb_scan_R01_S0053_C0000_L00001_S0001_C0003_G0010_E0001
27 28 1 0 0
SMALL
GASTEIGER
@<TRIPOS>ATOM
       1 C3        -5.7956    1.1826    3.6756 C.3       1 YZ9900      0.0513 
       2 C11       -5.4748    0.6546    2.2802 C.3       1 YZ9900      0.2089 
       3 O1        -3.7199    2.5948    2.5406 O.2       1 YZ9900     -0.2447 
       4 O2        -4.0646    0.4491    2.1619 O.3       1 YZ9900     -0.4453 
       5 C6         1.3773    3.2901    2.3794 C.ar      1 YZ9900      0.0063 
       6 C5        -0.9619    2.3988    2.3471 C.ar      1 YZ9900      0.0160 
       7 C4         2.3970    0.7520    1.8502 C.ar      1 YZ9900      0.0796 
       8 O3         0.1666   -0.1605    1.8078 O.2       1 YZ9900     -0.4208 
       9 C2         0.5012    2.2100    2.2287 C.ar      1 YZ9900      0.0353 
      10 C1         1.0135    0.9346    1.9629 C.ar      1 YZ9900      0.1519 
      11 C7        -1.2098    0.0223    1.9201 C.ar      1 YZ9900      0.3521 
      12 C12       -3.2540    1.5179    2.3141 C.2       1 YZ9900      0.3476 
      13 O4         4.6242    1.6013    1.8811 O.3       1 YZ9900     -0.2865 
      14 O5        -1.9337   -0.9498    1.7808 O.2       1 YZ9900     -0.2442 
      15 C10        2.7599    3.1019    2.2658 C.ar      1 YZ9900      0.0422 
      16 C9        -1.7874    1.3558    2.2005 C.ar      1 YZ9900      0.1515 
      17 C8         3.2785    1.8291    2.0000 C.ar      1 YZ9900      0.1988 
      18 H31       -5.2871    2.1323    3.8290 H         1 YZ9900      0.0000 
      19 H32       -6.8699    1.3263    3.7701 H         1 YZ9900      0.0000 
      20 H33       -5.4581    0.4653    4.4206 H         1 YZ9900      0.0000 
      21 H112      -5.7992    1.3775    1.5347 H         1 YZ9900      0.0000 
      22 H113      -5.9927   -0.2888    2.1209 H         1 YZ9900      0.0000 
      23 H6         0.9893    4.2769    2.5847 H         1 YZ9900      0.0000 
      24 H5        -1.3472    3.3867    2.5524 H         1 YZ9900      0.0000 
      25 H4         2.7875   -0.2338    1.6449 H         1 YZ9900      0.0000 
      26 HO4        4.8043    0.6628    1.7147 H         1 YZ9900      0.0000 
      27 H10        3.4147    3.9523    2.3864 H         1 YZ9900      0.0000 
@<TRIPOS>BOND
       1       13       17 1        
       2        7       17 ar       
       3        7       10 ar       
       4        8       10 ar       
       5        8       11 ar       
       6       14       11 2        
       7       17       15 ar       
       8       10        9 ar       
       9       11       16 ar       
      10        2        4 1        
      11        2        1 1        
      12       15        5 ar       
      13        9        5 ar       
      14        9        6 ar       
      15       16        6 ar       
      16       16       12 1        
      17        4       12 1        
      18       12        3 2        
      19       18        1 1        
      20       19        1 1        
      21       20        1 1        
      22       21        2 1        
      23       22        2 1        
      24       23        5 1        
      25       24        6 1        
      26       25        7 1        
      27       26       13 1        
      28       27       15 1        
@<TRIPOS>SUBSTRUCTURE
 1 YZ9900 10 RESIDUE 4 A YZ9900 0 ROOT

