#        scan_R01_S0054_C0000_L00001_S0001_C0000_G0010_E0001.mol2
#        Mon Jun 19 14:14:10 2017
#        Descriptor:     35    10    34     1     3     4
#        Energy - RMSD - RMSD MassCentre:     -44.9113    999.9999    999.9999
#        Receptor:       1  Surface Point:    54  Conformer:     0
#        Ligand:         1  Surface Point:     1  Conformer:     0
#        BUDE Formal Charge: 0
#        ATOM Count: 27
#        Heavy ATOM Count: 17
@<TRIPOS>MOLECULE
pdb1gcz_ligA.pdb_scan_R01_S0054_C0000_L00001_S0001_C0000_G0010_E0001
27 28 1 0 0
SMALL
GASTEIGER
@<TRIPOS>ATOM
       1 C3        -4.3207   -1.5286    4.9351 C.3       1 YZ9900      0.0513 
       2 C11       -3.1224   -1.7285    4.0519 C.3       1 YZ9900      0.2089 
       3 O1        -4.4191    0.4207    1.7270 O.2       1 YZ9900     -0.2447 
       4 O2        -3.4835   -1.4092    2.6489 O.3       1 YZ9900     -0.4453 
       5 C6        -0.4495    3.8542    1.7677 C.ar      1 YZ9900      0.0063 
       6 C5        -2.0100    1.8735    1.8058 C.ar      1 YZ9900      0.0160 
       7 C4         1.7989    2.0291    1.2738 C.ar      1 YZ9900      0.0796 
       8 O3         0.2213    0.2134    1.3278 O.2       1 YZ9900     -0.4208 
       9 C2        -0.6404    2.4561    1.6597 C.ar      1 YZ9900      0.0353 
      10 C1         0.4658    1.5846    1.4186 C.ar      1 YZ9900      0.1519 
      11 C7        -0.9598   -0.3275    1.5230 C.ar      1 YZ9900      0.3521 
      12 C12       -3.4409   -0.1759    2.0607 C.2       1 YZ9900      0.3476 
      13 O4         3.1640    3.9884    1.2784 O.3       1 YZ9900     -0.2865 
      14 O5        -1.0555   -1.4882    1.4751 O.2       1 YZ9900     -0.2442 
      15 C10        0.8782    4.3544    1.6315 C.ar      1 YZ9900      0.0422 
      16 C9        -2.1341    0.5106    1.7985 C.ar      1 YZ9900      0.1515 
      17 C8         1.9379    3.4499    1.3941 C.ar      1 YZ9900      0.1988 
      18 H31       -4.6657   -0.4979    4.8524 H         1 YZ9900      0.0000 
      19 H32       -5.1176   -2.2043    4.6243 H         1 YZ9900      0.0000 
      20 H33       -4.0487   -1.7390    5.9694 H         1 YZ9900      0.0000 
      21 H112      -2.7935   -2.7658    4.1152 H         1 YZ9900      0.0000 
      22 H113      -2.3165   -1.0712    4.3783 H         1 YZ9900      0.0000 
      23 H6        -1.2811    4.5193    1.9470 H         1 YZ9900      0.0000 
      24 H5        -2.8759    2.5097    1.9138 H         1 YZ9900      0.0000 
      25 H4         2.6301    1.3644    1.0906 H         1 YZ9900      0.0000 
      26 HO4        3.4608    4.2972    2.1376 H         1 YZ9900      0.0000 
      27 H10        1.0725    5.4140    1.7089 H         1 YZ9900      0.0000 
@<TRIPOS>BOND
       1       13       17 1        
       2        7       17 ar       
       3        7       10 ar       
       4        8       10 ar       
       5        8       11 ar       
       6       14       11 2        
       7       17       15 ar       
       8       10        9 ar       
       9       11       16 ar       
      10        2        4 1        
      11        2        1 1        
      12       15        5 ar       
      13        9        5 ar       
      14        9        6 ar       
      15       16        6 ar       
      16       16       12 1        
      17        4       12 1        
      18       12        3 2        
      19       18        1 1        
      20       19        1 1        
      21       20        1 1        
      22       21        2 1        
      23       22        2 1        
      24       23        5 1        
      25       24        6 1        
      26       25        7 1        
      27       26       13 1        
      28       27       15 1        
@<TRIPOS>SUBSTRUCTURE
 1 YZ9900 10 RESIDUE 4 A YZ9900 0 ROOT

