#        scan_R01_S0054_C0000_L00001_S0001_C0002_G0010_E0001.mol2
#        Mon Jun 19 14:14:11 2017
#        Descriptor:     25    16    36     1     3     4
#        Energy - RMSD - RMSD MassCentre:     -43.3358    999.9999    999.9999
#        Receptor:       1  Surface Point:    54  Conformer:     0
#        Ligand:         1  Surface Point:     1  Conformer:     2
#        BUDE Formal Charge: 0
#        ATOM Count: 27
#        Heavy ATOM Count: 17
@<TRIPOS>MOLECULE
pdb1gcz_ligA.pdb_scan_R01_S0054_C0000_L00001_S0001_C0002_G0010_E0001
27 28 1 0 0
SMALL
GASTEIGER
@<TRIPOS>ATOM
       1 C3         6.0255    1.8095   -0.1522 C.3       1 YZ9900      0.0513 
       2 C11        5.0686    2.7769    0.5385 C.3       1 YZ9900      0.2089 
       3 O1         3.0274    3.9662    1.6923 O.2       1 YZ9900     -0.2447 
       4 O2         3.8090    2.1328    0.7467 O.3       1 YZ9900     -0.4453 
       5 C6        -1.8356    2.9416    3.0308 C.ar      1 YZ9900      0.0063 
       6 C5         0.5196    2.8931    2.1834 C.ar      1 YZ9900      0.0160 
       7 C4        -2.2310    0.3095    2.2079 C.ar      1 YZ9900      0.0796 
       8 O3         0.0281    0.2064    1.3743 O.2       1 YZ9900     -0.4208 
       9 C2        -0.7925    2.2468    2.4095 C.ar      1 YZ9900      0.0353 
      10 C1        -0.9912    0.9242    1.9959 C.ar      1 YZ9900      0.1519 
      11 C7         1.2613    0.8190    1.1639 C.ar      1 YZ9900      0.3521 
      12 C12        2.8289    2.8386    1.3500 C.2       1 YZ9900      0.3476 
      13 O4        -4.4736    0.3564    3.0150 O.3       1 YZ9900     -0.2865 
      14 O5         2.1403    0.1726    0.6180 O.2       1 YZ9900     -0.2442 
      15 C10       -3.0735    2.3221    3.2404 C.ar      1 YZ9900      0.0422 
      16 C9         1.5078    2.2154    1.5876 C.ar      1 YZ9900      0.1515 
      17 C8        -3.2785    0.9998    2.8292 C.ar      1 YZ9900      0.1988 
      18 H31        5.6139    1.5202   -1.1170 H         1 YZ9900      0.0000 
      19 H32        6.9880    2.2951   -0.2986 H         1 YZ9900      0.0000 
      20 H33        6.1556    0.9247    0.4674 H         1 YZ9900      0.0000 
      21 H112       4.9267    3.6560   -0.0866 H         1 YZ9900      0.0000 
      22 H113       5.4849    3.0767    1.4979 H         1 YZ9900      0.0000 
      23 H6        -1.6897    3.9622    3.3525 H         1 YZ9900      0.0000 
      24 H5         0.6628    3.9137    2.5062 H         1 YZ9900      0.0000 
      25 H4        -2.3795   -0.7110    1.8871 H         1 YZ9900      0.0000 
      26 HO4       -4.4431   -0.5439    2.6552 H         1 YZ9900      0.0000 
      27 H10       -3.8623    2.8806    3.7224 H         1 YZ9900      0.0000 
@<TRIPOS>BOND
       1       13       17 1        
       2        7       17 ar       
       3        7       10 ar       
       4        8       10 ar       
       5        8       11 ar       
       6       14       11 2        
       7       17       15 ar       
       8       10        9 ar       
       9       11       16 ar       
      10        2        4 1        
      11        2        1 1        
      12       15        5 ar       
      13        9        5 ar       
      14        9        6 ar       
      15       16        6 ar       
      16       16       12 1        
      17        4       12 1        
      18       12        3 2        
      19       18        1 1        
      20       19        1 1        
      21       20        1 1        
      22       21        2 1        
      23       22        2 1        
      24       23        5 1        
      25       24        6 1        
      26       25        7 1        
      27       26       13 1        
      28       27       15 1        
@<TRIPOS>SUBSTRUCTURE
 1 YZ9900 10 RESIDUE 4 A YZ9900 0 ROOT

