#        scan_R01_S0054_C0000_L00001_S0001_C0003_G0010_E0001.mol2
#        Mon Jun 19 14:42:22 2017
#        Descriptor:      7    17    22     3     3     4
#        Energy - RMSD - RMSD MassCentre:     -43.9300    999.9999    999.9999
#        Receptor:       1  Surface Point:    54  Conformer:     0
#        Ligand:         1  Surface Point:     1  Conformer:     3
#        BUDE Formal Charge: 0
#        ATOM Count: 27
#        Heavy ATOM Count: 17
@<TRIPOS>MOLECULE
pdb1gcz_ligA.pdb_scan_R01_S0054_C0000_L00001_S0001_C0003_G0010_E0001
27 28 1 0 0
SMALL
GASTEIGER
@<TRIPOS>ATOM
       1 C3        -5.7252   -0.7279    1.1020 C.3       1 YZ9900      0.0513 
       2 C11       -4.7279   -1.4868    0.2313 C.3       1 YZ9900      0.2089 
       3 O1        -3.6963    0.9314    0.2528 O.2       1 YZ9900     -0.2447 
       4 O2        -3.3985   -1.2121    0.6809 O.3       1 YZ9900     -0.4453 
       5 C6         0.7011    3.2839    1.5251 C.ar      1 YZ9900      0.0063 
       6 C5        -1.1547    1.6632    1.0813 C.ar      1 YZ9900      0.0160 
       7 C4         2.3401    1.2232    2.4355 C.ar      1 YZ9900      0.0796 
       8 O3         0.5884   -0.3814    2.0278 O.2       1 YZ9900     -0.4208 
       9 C2         0.2178    1.9712    1.5417 C.ar      1 YZ9900      0.0353 
      10 C1         1.0413    0.9357    1.9992 C.ar      1 YZ9900      0.1519 
      11 C7        -0.7041   -0.6662    1.5934 C.ar      1 YZ9900      0.3521 
      12 C12       -2.9709    0.0681    0.6485 C.2       1 YZ9900      0.3476 
      13 O4         4.1069    2.7669    2.8578 O.3       1 YZ9900     -0.2865 
      14 O5        -1.0808   -1.8261    1.6267 O.2       1 YZ9900     -0.2442 
      15 C10        2.0008    3.5657    1.9625 C.ar      1 YZ9900      0.0422 
      16 C9        -1.6029    0.4025    1.1033 C.ar      1 YZ9900      0.1515 
      17 C8         2.8293    2.5347    2.4211 C.ar      1 YZ9900      0.1988 
      18 H31       -5.5389    0.3408    1.0184 H         1 YZ9900      0.0000 
      19 H32       -6.7373   -0.9474    0.7685 H         1 YZ9900      0.0000 
      20 H33       -5.6093   -1.0370    2.1387 H         1 YZ9900      0.0000 
      21 H112      -4.8332   -1.1683   -0.8036 H         1 YZ9900      0.0000 
      22 H113      -4.9212   -2.5549    0.3043 H         1 YZ9900      0.0000 
      23 H6         0.0715    4.0878    1.1735 H         1 YZ9900      0.0000 
      24 H5        -1.7822    2.4691    0.7303 H         1 YZ9900      0.0000 
      25 H4         2.9718    0.4209    2.7875 H         1 YZ9900      0.0000 
      26 HO4        4.5275    1.9445    3.1541 H         1 YZ9900      0.0000 
      27 H10        2.3498    4.5875    1.9395 H         1 YZ9900      0.0000 
@<TRIPOS>BOND
       1       13       17 1        
       2        7       17 ar       
       3        7       10 ar       
       4        8       10 ar       
       5        8       11 ar       
       6       14       11 2        
       7       17       15 ar       
       8       10        9 ar       
       9       11       16 ar       
      10        2        4 1        
      11        2        1 1        
      12       15        5 ar       
      13        9        5 ar       
      14        9        6 ar       
      15       16        6 ar       
      16       16       12 1        
      17        4       12 1        
      18       12        3 2        
      19       18        1 1        
      20       19        1 1        
      21       20        1 1        
      22       21        2 1        
      23       22        2 1        
      24       23        5 1        
      25       24        6 1        
      26       25        7 1        
      27       26       13 1        
      28       27       15 1        
@<TRIPOS>SUBSTRUCTURE
 1 YZ9900 10 RESIDUE 4 A YZ9900 0 ROOT

