#        scan_R01_S0055_C0000_L00001_S0001_C0000_G0010_E0001.mol2
#        Mon Jun 19 14:42:23 2017
#        Descriptor:     28     1     4     2     2     8
#        Energy - RMSD - RMSD MassCentre:     -48.1015    999.9999    999.9999
#        Receptor:       1  Surface Point:    55  Conformer:     0
#        Ligand:         1  Surface Point:     1  Conformer:     0
#        BUDE Formal Charge: 0
#        ATOM Count: 27
#        Heavy ATOM Count: 17
@<TRIPOS>MOLECULE
pdb1gcz_ligA.pdb_scan_R01_S0055_C0000_L00001_S0001_C0000_G0010_E0001
27 28 1 0 0
SMALL
GASTEIGER
@<TRIPOS>ATOM
       1 C3         1.6975    1.9560   10.3964 C.3       1 YZ9900      0.0513 
       2 C11        1.5281    0.6583    9.6594 C.3       1 YZ9900      0.2089 
       3 O1        -1.6045    1.5887    8.6462 O.2       1 YZ9900     -0.2447 
       4 O2         0.0827    0.3649    9.5004 O.3       1 YZ9900     -0.4453 
       5 C6        -0.7044    1.2943    3.4836 C.ar      1 YZ9900      0.0063 
       6 C5        -0.8460    1.0512    5.9898 C.ar      1 YZ9900      0.0160 
       7 C4         0.3548   -1.4405    3.3131 C.ar      1 YZ9900      0.0796 
       8 O3         0.1758   -1.5642    5.7092 O.2       1 YZ9900     -0.4208 
       9 C2        -0.5140    0.5004    4.6396 C.ar      1 YZ9900      0.0353 
      10 C1         0.0018   -0.8280    4.5362 C.ar      1 YZ9900      0.1519 
      11 C7        -0.0410   -1.0777    6.9100 C.ar      1 YZ9900      0.3521 
      12 C12       -0.7263    0.7967    8.4865 C.2       1 YZ9900      0.3476 
      13 O4         0.4515   -1.0700    0.9560 O.3       1 YZ9900     -0.2865 
      14 O5         0.1808   -1.7539    7.8332 O.2       1 YZ9900     -0.2442 
      15 C10       -0.3611    0.7235    2.2236 C.ar      1 YZ9900      0.0422 
      16 C9        -0.5489    0.2890    7.0870 C.ar      1 YZ9900      0.1515 
      17 C8         0.1459   -0.5949    2.1757 C.ar      1 YZ9900      0.1988 
      18 H31        1.2018    2.7550    9.8449 H         1 YZ9900      0.0000 
      19 H32        1.2542    1.8706   11.3885 H         1 YZ9900      0.0000 
      20 H33        2.7591    2.1841   10.4911 H         1 YZ9900      0.0000 
      21 H112       2.0018   -0.1447   10.2242 H         1 YZ9900      0.0000 
      22 H113       1.9936    0.7349    8.6767 H         1 YZ9900      0.0000 
      23 H6        -1.0965    2.2980    3.5538 H         1 YZ9900      0.0000 
      24 H5        -1.3067    2.0221    6.0959 H         1 YZ9900      0.0000 
      25 H4         0.7433   -2.4457    3.2426 H         1 YZ9900      0.0000 
      26 HO4        1.2377   -0.6278    0.6276 H         1 YZ9900      0.0000 
      27 H10       -0.4870    1.2928    1.3144 H         1 YZ9900      0.0000 
@<TRIPOS>BOND
       1       13       17 1        
       2        7       17 ar       
       3        7       10 ar       
       4        8       10 ar       
       5        8       11 ar       
       6       14       11 2        
       7       17       15 ar       
       8       10        9 ar       
       9       11       16 ar       
      10        2        4 1        
      11        2        1 1        
      12       15        5 ar       
      13        9        5 ar       
      14        9        6 ar       
      15       16        6 ar       
      16       16       12 1        
      17        4       12 1        
      18       12        3 2        
      19       18        1 1        
      20       19        1 1        
      21       20        1 1        
      22       21        2 1        
      23       22        2 1        
      24       23        5 1        
      25       24        6 1        
      26       25        7 1        
      27       26       13 1        
      28       27       15 1        
@<TRIPOS>SUBSTRUCTURE
 1 YZ9900 10 RESIDUE 4 A YZ9900 0 ROOT

