#        scan_R01_S0055_C0000_L00001_S0001_C0000_G0010_E0001.mol2
#        Mon Jun 19 14:14:12 2017
#        Descriptor:     14     2    34     3     3     4
#        Energy - RMSD - RMSD MassCentre:     -46.7742    999.9999    999.9999
#        Receptor:       1  Surface Point:    55  Conformer:     0
#        Ligand:         1  Surface Point:     1  Conformer:     0
#        BUDE Formal Charge: 0
#        ATOM Count: 27
#        Heavy ATOM Count: 17
@<TRIPOS>MOLECULE
pdb1gcz_ligA.pdb_scan_R01_S0055_C0000_L00001_S0001_C0000_G0010_E0001
27 28 1 0 0
SMALL
GASTEIGER
@<TRIPOS>ATOM
       1 C3         5.6865    1.6200    0.0796 C.3       1 YZ9900      0.0513 
       2 C11        4.5241    2.3828    0.6479 C.3       1 YZ9900      0.2089 
       3 O1         2.3316    0.4897   -1.1728 O.2       1 YZ9900     -0.2447 
       4 O2         3.3657    2.2770   -0.2728 O.3       1 YZ9900     -0.4453 
       5 C6        -0.3903   -1.4013    2.8971 C.ar      1 YZ9900      0.0063 
       6 C5         0.9407   -0.0884    1.2045 C.ar      1 YZ9900      0.0160 
       7 C4        -1.0873    1.1129    4.2474 C.ar      1 YZ9900      0.0796 
       8 O3         0.2079    2.2648    2.5788 O.2       1 YZ9900     -0.4208 
       9 C2         0.0705   -0.1514    2.4192 C.ar      1 YZ9900      0.0353 
      10 C1        -0.2798    1.0608    3.0894 C.ar      1 YZ9900      0.1519 
      11 C7         1.0304    2.3395    1.5572 C.ar      1 YZ9900      0.3521 
      12 C12        2.4279    1.2825   -0.2860 C.2       1 YZ9900      0.3476 
      13 O4        -2.2966   -0.2526    5.7887 O.3       1 YZ9900     -0.2865 
      14 O5         1.4234    3.3883    1.2343 O.2       1 YZ9900     -0.2442 
      15 C10       -1.2073   -1.4040    4.0649 C.ar      1 YZ9900      0.0422 
      16 C9         1.4486    1.1287    0.8387 C.ar      1 YZ9900      0.1515 
      17 C8        -1.5246   -0.1772    4.6909 C.ar      1 YZ9900      0.1988 
      18 H31        5.4028    0.5771   -0.0625 H         1 YZ9900      0.0000 
      19 H32        5.9707    2.0529   -0.8795 H         1 YZ9900      0.0000 
      20 H33        6.5296    1.6768    0.7680 H         1 YZ9900      0.0000 
      21 H112       4.8000    3.4308    0.7657 H         1 YZ9900      0.0000 
      22 H113       4.2558    1.9663    1.6189 H         1 YZ9900      0.0000 
      23 H6        -0.1319   -2.3212    2.3941 H         1 YZ9900      0.0000 
      24 H5         1.1620   -0.9774    0.6327 H         1 YZ9900      0.0000 
      25 H4        -1.3489    2.0333    4.7482 H         1 YZ9900      0.0000 
      26 HO4       -1.7893   -0.6280    6.5121 H         1 YZ9900      0.0000 
      27 H10       -1.5801   -2.3343    4.4675 H         1 YZ9900      0.0000 
@<TRIPOS>BOND
       1       13       17 1        
       2        7       17 ar       
       3        7       10 ar       
       4        8       10 ar       
       5        8       11 ar       
       6       14       11 2        
       7       17       15 ar       
       8       10        9 ar       
       9       11       16 ar       
      10        2        4 1        
      11        2        1 1        
      12       15        5 ar       
      13        9        5 ar       
      14        9        6 ar       
      15       16        6 ar       
      16       16       12 1        
      17        4       12 1        
      18       12        3 2        
      19       18        1 1        
      20       19        1 1        
      21       20        1 1        
      22       21        2 1        
      23       22        2 1        
      24       23        5 1        
      25       24        6 1        
      26       25        7 1        
      27       26       13 1        
      28       27       15 1        
@<TRIPOS>SUBSTRUCTURE
 1 YZ9900 10 RESIDUE 4 A YZ9900 0 ROOT

