#        scan_R01_S0055_C0000_L00001_S0001_C0002_G0010_E0001.mol2
#        Mon Jun 19 14:42:24 2017
#        Descriptor:     35    32    36     1     1     5
#        Energy - RMSD - RMSD MassCentre:     -53.1134    999.9999    999.9999
#        Receptor:       1  Surface Point:    55  Conformer:     0
#        Ligand:         1  Surface Point:     1  Conformer:     2
#        BUDE Formal Charge: 0
#        ATOM Count: 27
#        Heavy ATOM Count: 17
@<TRIPOS>MOLECULE
pdb1gcz_ligA.pdb_scan_R01_S0055_C0000_L00001_S0001_C0002_G0010_E0001
27 28 1 0 0
SMALL
GASTEIGER
@<TRIPOS>ATOM
       1 C3        -6.0663   -0.7658    8.3780 C.3       1 YZ9900      0.0513 
       2 C11       -4.5482   -0.6169    8.4208 C.3       1 YZ9900      0.2089 
       3 O1        -1.9806   -0.4433    7.8828 O.2       1 YZ9900     -0.2447 
       4 O2        -4.0209   -0.7367    7.0969 O.3       1 YZ9900     -0.4453 
       5 C6         1.1769   -0.6647    3.8243 C.ar      1 YZ9900      0.0063 
       6 C5        -0.7702   -0.6471    5.3977 C.ar      1 YZ9900      0.0160 
       7 C4        -0.5216   -1.1023    1.6598 C.ar      1 YZ9900      0.0796 
       8 O3        -2.4328   -1.0949    3.1284 O.2       1 YZ9900     -0.4208 
       9 C2        -0.2019   -0.7677    4.0365 C.ar      1 YZ9900      0.0353 
      10 C1        -1.0555   -0.9877    2.9490 C.ar      1 YZ9900      0.1519 
      11 C7        -2.9628   -0.9806    4.4115 C.ar      1 YZ9900      0.3521 
      12 C12       -2.6847   -0.6311    6.9356 C.2       1 YZ9900      0.3476 
      13 O4         1.3329   -1.1189    0.1620 O.3       1 YZ9900     -0.2865 
      14 O5        -4.1714   -1.0775    4.5466 O.2       1 YZ9900     -0.2442 
      15 C10        1.7055   -0.7801    2.5330 C.ar      1 YZ9900      0.0422 
      16 C9        -2.0914   -0.7481    5.5849 C.ar      1 YZ9900      0.1515 
      17 C8         0.8573   -1.0000    1.4413 C.ar      1 YZ9900      0.1988 
      18 H31       -6.3228   -1.7471    7.9839 H         1 YZ9900      0.0000 
      19 H32       -6.4686   -0.6615    9.3834 H         1 YZ9900      0.0000 
      20 H33       -6.4877    0.0050    7.7362 H         1 YZ9900      0.0000 
      21 H112      -4.1243   -1.3959    9.0511 H         1 YZ9900      0.0000 
      22 H113      -4.2901    0.3590    8.8264 H         1 YZ9900      0.0000 
      23 H6         1.8415   -0.4950    4.6585 H         1 YZ9900      0.0000 
      24 H5        -0.1033   -0.4775    6.2302 H         1 YZ9900      0.0000 
      25 H4        -1.1842   -1.2720    0.8239 H         1 YZ9900      0.0000 
      26 HO4        0.6101   -1.2853   -0.4632 H         1 YZ9900      0.0000 
      27 H10        2.7735   -0.6967    2.3962 H         1 YZ9900      0.0000 
@<TRIPOS>BOND
       1       13       17 1        
       2        7       17 ar       
       3        7       10 ar       
       4        8       10 ar       
       5        8       11 ar       
       6       14       11 2        
       7       17       15 ar       
       8       10        9 ar       
       9       11       16 ar       
      10        2        4 1        
      11        2        1 1        
      12       15        5 ar       
      13        9        5 ar       
      14        9        6 ar       
      15       16        6 ar       
      16       16       12 1        
      17        4       12 1        
      18       12        3 2        
      19       18        1 1        
      20       19        1 1        
      21       20        1 1        
      22       21        2 1        
      23       22        2 1        
      24       23        5 1        
      25       24        6 1        
      26       25        7 1        
      27       26       13 1        
      28       27       15 1        
@<TRIPOS>SUBSTRUCTURE
 1 YZ9900 10 RESIDUE 4 A YZ9900 0 ROOT

