#        1GCZ_R01_S0001_C0000_L00005_S0001_C0005_G0010_E0001.mol2
#        Tue Jun  6 09:55:32 2017
#        Descriptor:     28    31     5    15     9    13
#        Energy - RMSD - RMSD MassCentre:     -58.8764    999.9999    999.9999
#        Receptor:       1  Surface Point:     1  Conformer:     0
#        Ligand:         5  Surface Point:     1  Conformer:     5
#        BUDE Formal Charge: 0
#        ATOM Count: 55
#        Heavy ATOM Count: 30
@<TRIPOS>MOLECULE
ZINC61464195_1GCZ_R01_S0001_C0000_L00005_S0001_C0005_G0010_E0001
 55 56 0 0 0
SMALL
USER_CHARGES
@<TRIPOS>ATOM
       1 C1        -0.7006    1.9400    2.8806 C.3       1 <0>        -0.1456 
       2 C2        -0.2769    1.7218    4.3303 C.3       1 <0>        -0.0579 
       3 C3        -1.1643    0.6550    4.9653 C.3       1 <0>        -0.1456 
       4 C4         1.1622    1.2670    4.3701 C.ar      1 <0>        -0.0771 
       5 C5         2.0926    2.0632    5.0486 C.ar      1 <0>        -0.0943 
       6 C6         3.4139    1.6226    5.1905 C.ar      1 <0>        -0.0923 
       7 C7         3.8115    0.3876    4.6646 C.ar      1 <0>        -0.1041 
       8 C8         2.9017   -0.3911    3.9395 C.ar      1 <0>        -0.1315 
       9 C9         1.5913    0.0723    3.7726 C.ar      1 <0>        -0.0969 
      10 S1         5.4692   -0.1806    4.9142 S.3       1 <0>        -0.0341 
      11 C10        5.5520   -1.1497    6.4525 C.3       1 <0>        -0.1267 
      12 C11        6.9662   -1.6344    6.6653 C.2       1 <0>         0.4864 
      13 O1         7.2585   -2.7622    6.3999 O.2       1 <0>        -0.4815 
      14 O2         7.9009   -0.7930    7.1561 O.3       1 <0>        -0.3231 
      15 C12        9.2264   -1.2971    7.3407 C.3       1 <0>         0.0526 
      16 C13       10.1075   -0.2027    7.8940 C.2       1 <0>         0.5250 
      17 O3        10.6842   -0.3624    8.9687 O.2       1 <0>        -0.5082 
      18 N1        10.2604    0.9336    7.2201 N.am      1 <0>        -0.5981 
      19 C14       11.1186    1.9979    7.7601 C.3       1 <0>         0.0731 
      20 C15        9.5714    1.1244    5.9357 C.3       1 <0>         0.1010 
      21 C16       10.5171    1.7655    4.9485 C.2       1 <0>         0.4997 
      22 O4        10.1745    2.7759    4.3364 O.2       1 <0>        -0.5061 
      23 N2        11.7201    1.2373    4.7414 N.am      1 <0>        -0.6702 
      24 C17       12.6064    1.8381    3.8163 C.ar      1 <0>         0.1553 
      25 C18       13.3482    1.0396    2.9376 C.ar      1 <0>        -0.1106 
      26 C19       14.2185    1.6388    2.0192 C.ar      1 <0>        -0.0959 
      27 C20       14.3550    3.0294    1.9823 C.ar      1 <0>        -0.1208 
      28 C21       13.6237    3.8280    2.8697 C.ar      1 <0>        -0.0919 
      29 C22       12.7471    3.2306    3.7833 C.ar      1 <0>        -0.0639 
      30 Cl1       11.8394    4.2193    4.8905 Cl        1 <0>        -0.0632 
      31 H1        -0.6115    1.0045    2.3327 H         1 <0>         0.0596 
      32 H2        -1.7336    2.2806    2.8527 H         1 <0>         0.0563 
      33 H3        -0.0581    2.6907    2.4249 H         1 <0>         0.0575 
      34 H4        -0.3774    2.6538    4.8825 H         1 <0>         0.0784 
      35 H5        -0.8695    0.5092    6.0024 H         1 <0>         0.0596 
      36 H6        -1.0522   -0.2802    4.4208 H         1 <0>         0.0574 
      37 H7        -2.2029    0.9768    4.9246 H         1 <0>         0.0563 
      38 H8         1.8044    3.0099    5.4809 H         1 <0>         0.1285 
      39 H9         4.1663    2.1983    5.7090 H         1 <0>         0.1293 
      40 H10        3.2279   -1.3329    3.5235 H         1 <0>         0.1227 
      41 H11        0.9128   -0.5237    3.1803 H         1 <0>         0.1262 
      42 H12        5.2531   -0.5252    7.2919 H         1 <0>         0.1329 
      43 H13        4.8833   -2.0049    6.3796 H         1 <0>         0.1329 
      44 H14        9.6235   -1.6333    6.3851 H         1 <0>         0.1063 
      45 H15        9.2040   -2.1314    8.0386 H         1 <0>         0.1054 
      46 H16       12.1358    1.6255    7.8633 H         1 <0>         0.0686 
      47 H17       11.1101    2.8487    7.0821 H         1 <0>         0.0794 
      48 H18       10.7440    2.3057    8.7342 H         1 <0>         0.0778 
      49 H19        9.2458    0.1594    5.5528 H         1 <0>         0.1198 
      50 H20        8.7065    1.7682    6.0811 H         1 <0>         0.1233 
      51 H21       12.0005    0.4076    5.2446 H         1 <0>         0.4142 
      52 H22       13.2475   -0.0354    2.9615 H         1 <0>         0.1473 
      53 H23       14.7843    1.0215    1.3370 H         1 <0>         0.1337 
      54 H24       15.0235    3.4913    1.2710 H         1 <0>         0.1349 
      55 H25       13.7328    4.9022    2.8469 H         1 <0>         0.1385 
@<TRIPOS>BOND
       1        1        2 1        
       2        1       31 1        
       3        1       32 1        
       4        1       33 1        
       5        2        3 1        
       6        2        4 1        
       7        2       34 1        
       8        3       35 1        
       9        3       36 1        
      10        3       37 1        
      11        4        9 ar       
      12        4        5 ar       
      13        5        6 ar       
      14        5       38 1        
      15        6        7 ar       
      16        6       39 1        
      17        7        8 ar       
      18        7       10 1        
      19        8        9 ar       
      20        8       40 1        
      21        9       41 1        
      22       10       11 1        
      23       11       12 1        
      24       11       42 1        
      25       11       43 1        
      26       12       13 2        
      27       12       14 1        
      28       14       15 1        
      29       15       16 1        
      30       15       44 1        
      31       15       45 1        
      32       16       17 2        
      33       16       18 am       
      34       18       19 1        
      35       18       20 1        
      36       19       46 1        
      37       19       47 1        
      38       19       48 1        
      39       20       21 1        
      40       20       49 1        
      41       20       50 1        
      42       21       22 2        
      43       21       23 am       
      44       23       24 1        
      45       23       51 1        
      46       24       29 ar       
      47       24       25 ar       
      48       25       26 ar       
      49       25       52 1        
      50       26       27 ar       
      51       26       53 1        
      52       27       28 ar       
      53       27       54 1        
      54       28       29 ar       
      55       28       55 1        
      56       29       30 1        

