#        scan_R01_S0055_C0000_L00001_S0001_C0002_G0010_E0001.mol2
#        Mon Jun 19 14:14:13 2017
#        Descriptor:     35    32     1     1     1     5
#        Energy - RMSD - RMSD MassCentre:     -49.5913    999.9999    999.9999
#        Receptor:       1  Surface Point:    55  Conformer:     0
#        Ligand:         1  Surface Point:     1  Conformer:     2
#        BUDE Formal Charge: 0
#        ATOM Count: 27
#        Heavy ATOM Count: 17
@<TRIPOS>MOLECULE
pdb1gcz_ligA.pdb_scan_R01_S0055_C0000_L00001_S0001_C0002_G0010_E0001
27 28 1 0 0
SMALL
GASTEIGER
@<TRIPOS>ATOM
       1 C3        -6.0300   -1.6491    8.3780 C.3       1 YZ9900      0.0513 
       2 C11       -4.5608   -1.2389    8.4208 C.3       1 YZ9900      0.2089 
       3 O1        -2.0624   -0.6220    7.8828 O.2       1 YZ9900     -0.2447 
       4 O2        -4.0207   -1.2653    7.0969 O.3       1 YZ9900     -0.4453 
       5 C6         1.0856   -0.2917    3.8243 C.ar      1 YZ9900      0.0063 
       6 C5        -0.8350   -0.6126    5.3977 C.ar      1 YZ9900      0.0160 
       7 C4        -0.5111   -1.0177    1.6598 C.ar      1 YZ9900      0.0796 
       8 O3        -2.3945   -1.3422    3.1284 O.2       1 YZ9900     -0.4208 
       9 C2        -0.2544   -0.6327    4.0365 C.ar      1 YZ9900      0.0353 
      10 C1        -1.0568   -0.9975    2.9490 C.ar      1 YZ9900      0.1519 
      11 C7        -2.9364   -1.3218    4.4115 C.ar      1 YZ9900      0.3521 
      12 C12       -2.7231   -0.9293    6.9356 C.2       1 YZ9900      0.3476 
      13 O4         1.3181   -0.7120    0.1620 O.3       1 YZ9900     -0.2865 
      14 O5        -4.1098   -1.6271    4.5466 O.2       1 YZ9900     -0.2442 
      15 C10        1.6262   -0.3136    2.5330 C.ar      1 YZ9900      0.0422 
      16 C9        -2.1186   -0.9414    5.5849 C.ar      1 YZ9900      0.1515 
      17 C8         0.8291   -0.6775    1.4413 C.ar      1 YZ9900      0.1988 
      18 H31       -6.1122   -2.6601    7.9839 H         1 YZ9900      0.0000 
      19 H32       -6.4443   -1.6163    9.3834 H         1 YZ9900      0.0000 
      20 H33       -6.5788   -0.9632    7.7362 H         1 YZ9900      0.0000 
      21 H112      -4.0081   -1.9324    9.0511 H         1 YZ9900      0.0000 
      22 H113      -4.4762   -0.2329    8.8264 H         1 YZ9900      0.0000 
      23 H6         1.7107   -0.0093    4.6585 H         1 YZ9900      0.0000 
      24 H5        -0.2077   -0.3297    6.2302 H         1 YZ9900      0.0000 
      25 H4        -1.1342   -1.2998    0.8239 H         1 YZ9900      0.0000 
      26 HO4        0.6352   -1.0014   -0.4632 H         1 YZ9900      0.0000 
      27 H10        2.6635   -0.0461    2.3962 H         1 YZ9900      0.0000 
@<TRIPOS>BOND
       1       13       17 1        
       2        7       17 ar       
       3        7       10 ar       
       4        8       10 ar       
       5        8       11 ar       
       6       14       11 2        
       7       17       15 ar       
       8       10        9 ar       
       9       11       16 ar       
      10        2        4 1        
      11        2        1 1        
      12       15        5 ar       
      13        9        5 ar       
      14        9        6 ar       
      15       16        6 ar       
      16       16       12 1        
      17        4       12 1        
      18       12        3 2        
      19       18        1 1        
      20       19        1 1        
      21       20        1 1        
      22       21        2 1        
      23       22        2 1        
      24       23        5 1        
      25       24        6 1        
      26       25        7 1        
      27       26       13 1        
      28       27       15 1        
@<TRIPOS>SUBSTRUCTURE
 1 YZ9900 10 RESIDUE 4 A YZ9900 0 ROOT

