#        scan_R01_S0055_C0000_L00001_S0001_C0003_G0010_E0001.mol2
#        Mon Jun 19 14:42:24 2017
#        Descriptor:     35    24    20     1     2     6
#        Energy - RMSD - RMSD MassCentre:     -52.1413    999.9999    999.9999
#        Receptor:       1  Surface Point:    55  Conformer:     0
#        Ligand:         1  Surface Point:     1  Conformer:     3
#        BUDE Formal Charge: 0
#        ATOM Count: 27
#        Heavy ATOM Count: 17
@<TRIPOS>MOLECULE
pdb1gcz_ligA.pdb_scan_R01_S0055_C0000_L00001_S0001_C0003_G0010_E0001
27 28 1 0 0
SMALL
GASTEIGER
@<TRIPOS>ATOM
       1 C3        -6.5925   -1.2684    8.0169 C.3       1 YZ9900      0.0513 
       2 C11       -5.3065   -1.9751    8.4356 C.3       1 YZ9900      0.2089 
       3 O1        -5.1682   -2.1095    5.8136 O.2       1 YZ9900     -0.2447 
       4 O2        -4.2084   -1.4480    7.6864 O.3       1 YZ9900     -0.4453 
       5 C6        -2.0033   -0.7220    1.9993 C.ar      1 YZ9900      0.0063 
       6 C5        -3.1357   -1.1528    4.1901 C.ar      1 YZ9900      0.0160 
       7 C4         0.1272    0.5192    3.2962 C.ar      1 YZ9900      0.0796 
       8 O3        -0.9175    0.1310    5.4333 O.2       1 YZ9900     -0.4208 
       9 C2        -2.0100   -0.6148    3.3940 C.ar      1 YZ9900      0.0353 
      10 C1        -0.9395    0.0089    4.0458 C.ar      1 YZ9900      0.1519 
      11 C7        -1.9793   -0.3771    6.1781 C.ar      1 YZ9900      0.3521 
      12 C12       -4.2410   -1.5722    6.3425 C.2       1 YZ9900      0.3476 
      13 O4         1.2050    0.9291    1.2098 O.3       1 YZ9900     -0.2865 
      14 O5        -1.9403   -0.2597    7.3918 O.2       1 YZ9900     -0.2442 
      15 C10       -0.9341   -0.2100    1.2545 C.ar      1 YZ9900      0.0422 
      16 C9        -3.1278   -1.0426    5.5237 C.ar      1 YZ9900      0.1515 
      17 C8         0.1394    0.4147    1.9002 C.ar      1 YZ9900      0.1988 
      18 H31       -6.7728   -1.4421    6.9581 H         1 YZ9900      0.0000 
      19 H32       -7.4259   -1.6600    8.5964 H         1 YZ9900      0.0000 
      20 H33       -6.4942   -0.2002    8.1983 H         1 YZ9900      0.0000 
      21 H112      -5.3983   -3.0416    8.2416 H         1 YZ9900      0.0000 
      22 H113      -5.1317   -1.8126    9.4970 H         1 YZ9900      0.0000 
      23 H6        -2.8257   -1.2019    1.4896 H         1 YZ9900      0.0000 
      24 H5        -3.9568   -1.6322    3.6778 H         1 YZ9900      0.0000 
      25 H4         0.9509    0.9995    3.8035 H         1 YZ9900      0.0000 
      26 HO4        1.8446    1.3390    1.8130 H         1 YZ9900      0.0000 
      27 H10       -0.9533   -0.3057    0.1789 H         1 YZ9900      0.0000 
@<TRIPOS>BOND
       1       13       17 1        
       2        7       17 ar       
       3        7       10 ar       
       4        8       10 ar       
       5        8       11 ar       
       6       14       11 2        
       7       17       15 ar       
       8       10        9 ar       
       9       11       16 ar       
      10        2        4 1        
      11        2        1 1        
      12       15        5 ar       
      13        9        5 ar       
      14        9        6 ar       
      15       16        6 ar       
      16       16       12 1        
      17        4       12 1        
      18       12        3 2        
      19       18        1 1        
      20       19        1 1        
      21       20        1 1        
      22       21        2 1        
      23       22        2 1        
      24       23        5 1        
      25       24        6 1        
      26       25        7 1        
      27       26       13 1        
      28       27       15 1        
@<TRIPOS>SUBSTRUCTURE
 1 YZ9900 10 RESIDUE 4 A YZ9900 0 ROOT

