#        scan_R01_S0055_C0000_L00001_S0001_C0003_G0010_E0001.mol2
#        Mon Jun 19 14:14:13 2017
#        Descriptor:      1    23    20     2     2     7
#        Energy - RMSD - RMSD MassCentre:     -46.8703    999.9999    999.9999
#        Receptor:       1  Surface Point:    55  Conformer:     0
#        Ligand:         1  Surface Point:     1  Conformer:     3
#        BUDE Formal Charge: 0
#        ATOM Count: 27
#        Heavy ATOM Count: 17
@<TRIPOS>MOLECULE
pdb1gcz_ligA.pdb_scan_R01_S0055_C0000_L00001_S0001_C0003_G0010_E0001
27 28 1 0 0
SMALL
GASTEIGER
@<TRIPOS>ATOM
       1 C3        -6.1891   -0.4696    8.2396 C.3       1 YZ9900      0.0513 
       2 C11       -5.2028   -1.5954    8.5366 C.3       1 YZ9900      0.2089 
       3 O1        -4.7752   -1.1628    5.9788 O.2       1 YZ9900     -0.2447 
       4 O2        -3.9181   -1.2538    8.0094 O.3       1 YZ9900     -0.4453 
       5 C6        -0.8987    0.0767    2.8281 C.ar      1 YZ9900      0.0063 
       6 C5        -2.3726   -0.4941    4.7696 C.ar      1 YZ9900      0.0160 
       7 C4         1.3046    0.3154    4.5163 C.ar      1 YZ9900      0.0796 
       8 O3        -0.0673   -0.2290    6.4218 O.2       1 YZ9900     -0.4208 
       9 C2        -1.0527   -0.1397    4.2015 C.ar      1 YZ9900      0.0353 
      10 C1         0.0544   -0.0197    5.0499 C.ar      1 YZ9900      0.1519 
      11 C7        -1.3116   -0.5624    6.9516 C.ar      1 YZ9900      0.3521 
      12 C12       -3.8127   -1.0534    6.6785 C.2       1 YZ9900      0.3476 
      13 O4         2.7075    0.8589    2.6671 O.3       1 YZ9900     -0.2865 
      14 O5        -1.3963   -0.7414    8.1554 O.2       1 YZ9900     -0.2442 
      15 C10        0.3538    0.4116    2.2997 C.ar      1 YZ9900      0.0422 
      16 C9        -2.5041   -0.6980    6.0856 C.ar      1 YZ9900      0.1515 
      17 C8         1.4647    0.5331    3.1427 C.ar      1 YZ9900      0.1988 
      18 H31       -6.2740   -0.3372    7.1630 H         1 YZ9900      0.0000 
      19 H32       -7.1632   -0.7235    8.6524 H         1 YZ9900      0.0000 
      20 H33       -5.8322    0.4532    8.6921 H         1 YZ9900      0.0000 
      21 H112      -5.5514   -2.5157    8.0726 H         1 YZ9900      0.0000 
      22 H113      -5.1265   -1.7372    9.6125 H         1 YZ9900      0.0000 
      23 H6        -1.7483   -0.0141    2.1675 H         1 YZ9900      0.0000 
      24 H5        -3.2205   -0.5843    4.1067 H         1 YZ9900      0.0000 
      25 H4         2.1558    0.4068    5.1748 H         1 YZ9900      0.0000 
      26 HO4        3.3519    0.9164    3.3899 H         1 YZ9900      0.0000 
      27 H10        0.4458    0.5734    1.2359 H         1 YZ9900      0.0000 
@<TRIPOS>BOND
       1       13       17 1        
       2        7       17 ar       
       3        7       10 ar       
       4        8       10 ar       
       5        8       11 ar       
       6       14       11 2        
       7       17       15 ar       
       8       10        9 ar       
       9       11       16 ar       
      10        2        4 1        
      11        2        1 1        
      12       15        5 ar       
      13        9        5 ar       
      14        9        6 ar       
      15       16        6 ar       
      16       16       12 1        
      17        4       12 1        
      18       12        3 2        
      19       18        1 1        
      20       19        1 1        
      21       20        1 1        
      22       21        2 1        
      23       22        2 1        
      24       23        5 1        
      25       24        6 1        
      26       25        7 1        
      27       26       13 1        
      28       27       15 1        
@<TRIPOS>SUBSTRUCTURE
 1 YZ9900 10 RESIDUE 4 A YZ9900 0 ROOT

