#        scan_R01_S0056_C0000_L00001_S0001_C0000_G0010_E0001.mol2
#        Mon Jun 19 14:42:25 2017
#        Descriptor:     15    10    29     1     2     5
#        Energy - RMSD - RMSD MassCentre:     -44.0809    999.9999    999.9999
#        Receptor:       1  Surface Point:    56  Conformer:     0
#        Ligand:         1  Surface Point:     1  Conformer:     0
#        BUDE Formal Charge: 0
#        ATOM Count: 27
#        Heavy ATOM Count: 17
@<TRIPOS>MOLECULE
pdb1gcz_ligA.pdb_scan_R01_S0056_C0000_L00001_S0001_C0000_G0010_E0001
27 28 1 0 0
SMALL
GASTEIGER
@<TRIPOS>ATOM
       1 C3         2.3023   -1.1359    6.7202 C.3       1 YZ9900      0.0513 
       2 C11        2.1497   -0.3036    5.4793 C.3       1 YZ9900      0.2089 
       3 O1         0.6808   -2.9260    3.8448 O.2       1 YZ9900     -0.2447 
       4 O2         2.0475   -1.1934    4.2966 O.3       1 YZ9900     -0.4453 
       5 C6        -3.8588   -0.5240    2.7630 C.ar      1 YZ9900      0.0063 
       6 C5        -1.4822   -1.2439    3.2028 C.ar      1 YZ9900      0.0160 
       7 C4        -2.8446    1.8984    1.4463 C.ar      1 YZ9900      0.0796 
       8 O3        -0.6189    1.1147    1.9163 O.2       1 YZ9900     -0.4208 
       9 C2        -2.4714   -0.2713    2.6442 C.ar      1 YZ9900      0.0353 
      10 C1        -1.9975    0.9125    1.9997 C.ar      1 YZ9900      0.1519 
      11 C7         0.2664    0.3115    2.4611 C.ar      1 YZ9900      0.3521 
      12 C12        0.9043   -1.7546    3.7998 C.2       1 YZ9900      0.3476 
      13 O4        -5.1396    2.4666    1.1104 O.3       1 YZ9900     -0.2865 
      14 O5         1.3952    0.5908    2.3809 O.2       1 YZ9900     -0.2442 
      15 C10       -4.7571    0.4417    2.2228 C.ar      1 YZ9900      0.0422 
      16 C9        -0.1557   -0.9101    3.1587 C.ar      1 YZ9900      0.1515 
      17 C8        -4.2371    1.5964    1.5953 C.ar      1 YZ9900      0.1988 
      18 H31        1.4478   -1.8059    6.8163 H         1 YZ9900      0.0000 
      19 H32        3.2182   -1.7231    6.6532 H         1 YZ9900      0.0000 
      20 H33        2.3521   -0.4831    7.5916 H         1 YZ9900      0.0000 
      21 H112       3.0168    0.3478    5.3699 H         1 YZ9900      0.0000 
      22 H113       1.2472    0.3026    5.5569 H         1 YZ9900      0.0000 
      23 H6        -4.2243   -1.4178    3.2463 H         1 YZ9900      0.0000 
      24 H5        -1.8052   -2.1822    3.6287 H         1 YZ9900      0.0000 
      25 H4        -2.4790    2.7904    0.9595 H         1 YZ9900      0.0000 
      26 HO4       -5.5774    2.9134    1.8385 H         1 YZ9900      0.0000 
      27 H10       -5.8246    0.2926    2.2923 H         1 YZ9900      0.0000 
@<TRIPOS>BOND
       1       13       17 1        
       2        7       17 ar       
       3        7       10 ar       
       4        8       10 ar       
       5        8       11 ar       
       6       14       11 2        
       7       17       15 ar       
       8       10        9 ar       
       9       11       16 ar       
      10        2        4 1        
      11        2        1 1        
      12       15        5 ar       
      13        9        5 ar       
      14        9        6 ar       
      15       16        6 ar       
      16       16       12 1        
      17        4       12 1        
      18       12        3 2        
      19       18        1 1        
      20       19        1 1        
      21       20        1 1        
      22       21        2 1        
      23       22        2 1        
      24       23        5 1        
      25       24        6 1        
      26       25        7 1        
      27       26       13 1        
      28       27       15 1        
@<TRIPOS>SUBSTRUCTURE
 1 YZ9900 10 RESIDUE 4 A YZ9900 0 ROOT

