#        scan_R01_S0056_C0000_L00001_S0001_C0000_G0010_E0001.mol2
#        Mon Jun 19 14:14:14 2017
#        Descriptor:     29    10    14     1     2     5
#        Energy - RMSD - RMSD MassCentre:     -42.2445    999.9999    999.9999
#        Receptor:       1  Surface Point:    56  Conformer:     0
#        Ligand:         1  Surface Point:     1  Conformer:     0
#        BUDE Formal Charge: 0
#        ATOM Count: 27
#        Heavy ATOM Count: 17
@<TRIPOS>MOLECULE
pdb1gcz_ligA.pdb_scan_R01_S0056_C0000_L00001_S0001_C0000_G0010_E0001
27 28 1 0 0
SMALL
GASTEIGER
@<TRIPOS>ATOM
       1 C3         2.5525   -2.6237    5.5556 C.3       1 YZ9900      0.0513 
       2 C11        2.3764   -1.4645    4.6170 C.3       1 YZ9900      0.2089 
       3 O1         0.1630   -3.2674    2.7312 O.2       1 YZ9900     -0.2447 
       4 O2         1.9079   -1.9614    3.3000 O.3       1 YZ9900     -0.4453 
       5 C6        -3.9060    0.0084    3.2421 C.ar      1 YZ9900      0.0063 
       6 C5        -1.6866   -1.1616    2.9869 C.ar      1 YZ9900      0.0160 
       7 C4        -2.6435    2.5168    2.3793 C.ar      1 YZ9900      0.0796 
       8 O3        -0.5780    1.3010    2.1684 O.2       1 YZ9900     -0.4208 
       9 C2        -2.5334    0.0683    2.9028 C.ar      1 YZ9900      0.0353 
      10 C1        -1.9375    1.2977    2.4847 C.ar      1 YZ9900      0.1519 
      11 C7         0.2007    0.2516    2.3027 C.ar      1 YZ9900      0.3521 
      12 C12        0.6100   -2.1789    2.9298 C.2       1 YZ9900      0.3476 
      13 O4        -4.7983    3.5015    2.6786 O.3       1 YZ9900     -0.2865 
      14 O5         1.3351    0.3654    2.0603 O.2       1 YZ9900     -0.2442 
      15 C10       -4.6634    1.2126    3.1548 C.ar      1 YZ9900      0.0422 
      16 C9        -0.3443   -1.0365    2.7509 C.ar      1 YZ9900      0.1515 
      17 C8        -4.0262    2.4027    2.7361 C.ar      1 YZ9900      0.1988 
      18 H31        1.6061   -3.1545    5.6599 H         1 YZ9900      0.0000 
      19 H32        3.3071   -3.3020    5.1573 H         1 YZ9900      0.0000 
      20 H33        2.8726   -2.2563    6.5305 H         1 YZ9900      0.0000 
      21 H112       3.3292   -0.9496    4.4929 H         1 YZ9900      0.0000 
      22 H113       1.6404   -0.7731    5.0273 H         1 YZ9900      0.0000 
      23 H6        -4.3639   -0.9177    3.5562 H         1 YZ9900      0.0000 
      24 H5        -2.1216   -2.1205    3.2269 H         1 YZ9900      0.0000 
      25 H4        -2.1864    3.4422    2.0615 H         1 YZ9900      0.0000 
      26 HO4       -5.0141    3.7885    3.5689 H         1 YZ9900      0.0000 
      27 H10       -5.7138    1.2157    3.4062 H         1 YZ9900      0.0000 
@<TRIPOS>BOND
       1       13       17 1        
       2        7       17 ar       
       3        7       10 ar       
       4        8       10 ar       
       5        8       11 ar       
       6       14       11 2        
       7       17       15 ar       
       8       10        9 ar       
       9       11       16 ar       
      10        2        4 1        
      11        2        1 1        
      12       15        5 ar       
      13        9        5 ar       
      14        9        6 ar       
      15       16        6 ar       
      16       16       12 1        
      17        4       12 1        
      18       12        3 2        
      19       18        1 1        
      20       19        1 1        
      21       20        1 1        
      22       21        2 1        
      23       22        2 1        
      24       23        5 1        
      25       24        6 1        
      26       25        7 1        
      27       26       13 1        
      28       27       15 1        
@<TRIPOS>SUBSTRUCTURE
 1 YZ9900 10 RESIDUE 4 A YZ9900 0 ROOT

