#        scan_R01_S0056_C0000_L00001_S0001_C0002_G0010_E0001.mol2
#        Mon Jun 19 14:42:25 2017
#        Descriptor:     27    16    12     2     2     5
#        Energy - RMSD - RMSD MassCentre:     -45.8261    999.9999    999.9999
#        Receptor:       1  Surface Point:    56  Conformer:     0
#        Ligand:         1  Surface Point:     1  Conformer:     2
#        BUDE Formal Charge: 0
#        ATOM Count: 27
#        Heavy ATOM Count: 17
@<TRIPOS>MOLECULE
pdb1gcz_ligA.pdb_scan_R01_S0056_C0000_L00001_S0001_C0002_G0010_E0001
27 28 1 0 0
SMALL
GASTEIGER
@<TRIPOS>ATOM
       1 C3        -4.2329    5.5501    0.5661 C.3       1 YZ9900      0.0513 
       2 C11       -4.5772    4.1081    0.9277 C.3       1 YZ9900      0.2089 
       3 O1        -4.5652    1.5882    1.6773 O.2       1 YZ9900     -0.2447 
       4 O2        -3.3936    3.4295    1.3562 O.3       1 YZ9900     -0.4453 
       5 C6        -1.2439   -1.9616    3.3681 C.ar      1 YZ9900      0.0063 
       6 C5        -2.3875    0.1041    2.5358 C.ar      1 YZ9900      0.0160 
       7 C4         1.2015   -0.6291    3.4426 C.ar      1 YZ9900      0.0796 
       8 O3         0.1529    1.3883    2.6428 O.2       1 YZ9900     -0.4208 
       9 C2        -1.1758   -0.6185    2.9829 C.ar      1 YZ9900      0.0353 
      10 C1         0.0531    0.0511    3.0203 C.ar      1 YZ9900      0.1519 
      11 C7        -0.9904    2.0641    2.2228 C.ar      1 YZ9900      0.3521 
      12 C12       -3.5029    2.1338    1.7195 C.2       1 YZ9900      0.3476 
      13 O4         2.2899   -2.5964    4.2351 O.3       1 YZ9900     -0.2865 
      14 O5        -0.8810    3.2346    1.8966 O.2       1 YZ9900     -0.2442 
      15 C10       -0.0923   -2.6370    3.7896 C.ar      1 YZ9900      0.0422 
      16 C9        -2.3063    1.3888    2.1703 C.ar      1 YZ9900      0.1515 
      17 C8         1.1394   -1.9731    3.8293 C.ar      1 YZ9900      0.1988 
      18 H31       -3.5092    5.5567   -0.2464 H         1 YZ9900      0.0000 
      19 H32       -5.1358    6.0700    0.2527 H         1 YZ9900      0.0000 
      20 H33       -3.8088    6.0497    1.4345 H         1 YZ9900      0.0000 
      21 H112      -4.9884    3.6031    0.0560 H         1 YZ9900      0.0000 
      22 H113      -5.3102    4.1001    1.7316 H         1 YZ9900      0.0000 
      23 H6        -2.1885   -2.4847    3.3418 H         1 YZ9900      0.0000 
      24 H5        -3.3307   -0.4214    2.5105 H         1 YZ9900      0.0000 
      25 H4         2.1473   -0.1083    3.4698 H         1 YZ9900      0.0000 
      26 HO4        3.0483   -1.9938    4.1832 H         1 YZ9900      0.0000 
      27 H10       -0.1721   -3.6737    4.0818 H         1 YZ9900      0.0000 
@<TRIPOS>BOND
       1       13       17 1        
       2        7       17 ar       
       3        7       10 ar       
       4        8       10 ar       
       5        8       11 ar       
       6       14       11 2        
       7       17       15 ar       
       8       10        9 ar       
       9       11       16 ar       
      10        2        4 1        
      11        2        1 1        
      12       15        5 ar       
      13        9        5 ar       
      14        9        6 ar       
      15       16        6 ar       
      16       16       12 1        
      17        4       12 1        
      18       12        3 2        
      19       18        1 1        
      20       19        1 1        
      21       20        1 1        
      22       21        2 1        
      23       22        2 1        
      24       23        5 1        
      25       24        6 1        
      26       25        7 1        
      27       26       13 1        
      28       27       15 1        
@<TRIPOS>SUBSTRUCTURE
 1 YZ9900 10 RESIDUE 4 A YZ9900 0 ROOT

