#        scan_R01_S0056_C0000_L00001_S0001_C0003_G0010_E0001.mol2
#        Mon Jun 19 14:42:26 2017
#        Descriptor:      9     2    29     2     2     5
#        Energy - RMSD - RMSD MassCentre:     -44.4866    999.9999    999.9999
#        Receptor:       1  Surface Point:    56  Conformer:     0
#        Ligand:         1  Surface Point:     1  Conformer:     3
#        BUDE Formal Charge: 0
#        ATOM Count: 27
#        Heavy ATOM Count: 17
@<TRIPOS>MOLECULE
pdb1gcz_ligA.pdb_scan_R01_S0056_C0000_L00001_S0001_C0003_G0010_E0001
27 28 1 0 0
SMALL
GASTEIGER
@<TRIPOS>ATOM
       1 C3        -4.4731    4.2524   -0.3060 C.3       1 YZ9900      0.0513 
       2 C11       -3.7943    4.8405    0.9277 C.3       1 YZ9900      0.2089 
       3 O1        -4.2201    2.3568    1.6773 O.2       1 YZ9900     -0.2447 
       4 O2        -2.7465    3.9667    1.3562 O.3       1 YZ9900     -0.4453 
       5 C6        -1.5657   -1.7158    3.3681 C.ar      1 YZ9900      0.0063 
       6 C5        -2.3332    0.5171    2.5358 C.ar      1 YZ9900      0.0160 
       7 C4         1.0740   -0.8282    3.4426 C.ar      1 YZ9900      0.0796 
       8 O3         0.3917    1.3406    2.6428 O.2       1 YZ9900     -0.4208 
       9 C2        -1.2653   -0.4050    2.9829 C.ar      1 YZ9900      0.0353 
      10 C1         0.0611    0.0411    3.0203 C.ar      1 YZ9900      0.1519 
      11 C7        -0.6170    2.2047    2.2228 C.ar      1 YZ9900      0.3521 
      12 C12       -3.0792    2.7097    1.7195 C.2       1 YZ9900      0.3476 
      13 O4         1.8042   -2.9546    4.2351 O.3       1 YZ9900     -0.2865 
      14 O5        -0.3060    3.3384    1.8966 O.2       1 YZ9900     -0.2442 
      15 C10       -0.5489   -2.5810    3.7896 C.ar      1 YZ9900      0.0422 
      16 C9        -2.0301    1.7682    2.1703 C.ar      1 YZ9900      0.1515 
      17 C8         0.7795   -2.1410    3.8293 C.ar      1 YZ9900      0.1988 
      18 H31       -4.9020    3.2841   -0.0562 H         1 YZ9900      0.0000 
      19 H32       -5.2614    4.9237   -0.6400 H         1 YZ9900      0.0000 
      20 H33       -3.7390    4.1308   -1.0997 H         1 YZ9900      0.0000 
      21 H112      -4.5244    4.9494    1.7269 H         1 YZ9900      0.0000 
      22 H113      -3.3758    5.8144    0.6825 H         1 YZ9900      0.0000 
      23 H6        -2.5867   -2.0669    3.3418 H         1 YZ9900      0.0000 
      24 H5        -3.3533    0.1634    2.5105 H         1 YZ9900      0.0000 
      25 H4         2.0959   -0.4795    3.4698 H         1 YZ9900      0.0000 
      26 HO4        2.6558   -2.4929    4.1832 H         1 YZ9900      0.0000 
      27 H10       -0.8074   -3.5880    4.0818 H         1 YZ9900      0.0000 
@<TRIPOS>BOND
       1       13       17 1        
       2        7       17 ar       
       3        7       10 ar       
       4        8       10 ar       
       5        8       11 ar       
       6       14       11 2        
       7       17       15 ar       
       8       10        9 ar       
       9       11       16 ar       
      10        2        4 1        
      11        2        1 1        
      12       15        5 ar       
      13        9        5 ar       
      14        9        6 ar       
      15       16        6 ar       
      16       16       12 1        
      17        4       12 1        
      18       12        3 2        
      19       18        1 1        
      20       19        1 1        
      21       20        1 1        
      22       21        2 1        
      23       22        2 1        
      24       23        5 1        
      25       24        6 1        
      26       25        7 1        
      27       26       13 1        
      28       27       15 1        
@<TRIPOS>SUBSTRUCTURE
 1 YZ9900 10 RESIDUE 4 A YZ9900 0 ROOT

