#        1GCZ_R01_S0001_C0000_L00005_S0001_C0005_G0010_E0001.mol2
#        Tue Jun  6 14:05:42 2017
#        Descriptor:     20     2    22     9     7    13
#        Energy - RMSD - RMSD MassCentre:     -59.8222    999.9999    999.9999
#        Receptor:       1  Surface Point:     1  Conformer:     0
#        Ligand:         5  Surface Point:     1  Conformer:     5
#        BUDE Formal Charge: 0
#        ATOM Count: 55
#        Heavy ATOM Count: 30
@<TRIPOS>MOLECULE
ZINC61464195_1GCZ_R01_S0001_C0000_L00005_S0001_C0005_G0010_E0001
 55 56 0 0 0
SMALL
USER_CHARGES
@<TRIPOS>ATOM
       1 C1        -2.2865    0.6849   -2.1438 C.3       1 <0>        -0.1456 
       2 C2        -0.7808    0.7522   -1.9052 C.3       1 <0>        -0.0579 
       3 C3        -0.2320    2.0559   -2.4779 C.3       1 <0>        -0.1456 
       4 C4        -0.5044    0.6996   -0.4218 C.ar      1 <0>        -0.0771 
       5 C5         0.2640   -0.3604    0.0741 C.ar      1 <0>        -0.0943 
       6 C6         0.6231   -0.3868    1.4270 C.ar      1 <0>        -0.0923 
       7 C7         0.2250    0.6428    2.2881 C.ar      1 <0>        -0.1041 
       8 C8        -0.5872    1.6793    1.8129 C.ar      1 <0>        -0.1315 
       9 C9        -0.9704    1.6805    0.4664 C.ar      1 <0>        -0.0969 
      10 S1         0.7469    0.6245    3.9794 S.3       1 <0>        -0.0341 
      11 C10        2.3273    1.5136    4.1352 C.3       1 <0>        -0.1267 
      12 C11        2.7724    1.4979    5.5780 C.2       1 <0>         0.4864 
      13 O1         2.6105    2.4623    6.2647 O.2       1 <0>        -0.4815 
      14 O2         3.3537    0.3934    6.0925 O.3       1 <0>        -0.3231 
      15 C12        3.7587    0.4255    7.4636 C.3       1 <0>         0.0526 
      16 C13        4.3811   -0.8992    7.8348 C.2       1 <0>         0.5250 
      17 O3         5.5363   -0.9392    8.2554 O.2       1 <0>        -0.5082 
      18 N1         3.6812   -2.0228    7.7072 N.am      1 <0>        -0.5981 
      19 C14        4.2885   -3.3116    8.0690 C.3       1 <0>         0.0731 
      20 C15        2.3005   -1.9751    7.2048 C.3       1 <0>         0.1010 
      21 C16        1.4340   -2.8979    8.0279 C.2       1 <0>         0.4997 
      22 O4         0.7277   -3.7369    7.4712 O.2       1 <0>        -0.5061 
      23 N2         1.4351   -2.8030    9.3546 N.am      1 <0>        -0.6702 
      24 C17        0.6232   -3.6678   10.1260 C.ar      1 <0>         0.1553 
      25 C18       -0.0939   -3.1655   11.2184 C.ar      1 <0>        -0.1106 
      26 C19       -0.9016   -4.0235   11.9744 C.ar      1 <0>        -0.0959 
      27 C20       -0.9878   -5.3797   11.6475 C.ar      1 <0>        -0.1208 
      28 C21       -0.2605   -5.8856   10.5634 C.ar      1 <0>        -0.0919 
      29 C22        0.5413   -5.0273    9.8016 C.ar      1 <0>        -0.0639 
      30 Cl1        1.4499   -5.6529    8.4560 Cl        1 <0>        -0.0632 
      31 H1        -2.7673    1.5356   -1.6655 H         1 <0>         0.0596 
      32 H2        -2.4850    0.7094   -3.2133 H         1 <0>         0.0563 
      33 H3        -2.6788   -0.2384   -1.7226 H         1 <0>         0.0575 
      34 H4        -0.2974   -0.0912   -2.3937 H         1 <0>         0.0784 
      35 H5         0.8434    2.0971   -2.3183 H         1 <0>         0.0596 
      36 H6        -0.7059    2.8985   -1.9788 H         1 <0>         0.0574 
      37 H7        -0.4430    2.0999   -3.5445 H         1 <0>         0.0563 
      38 H8         0.6004   -1.1551   -0.5750 H         1 <0>         0.1285 
      39 H9         1.2181   -1.1798    1.8554 H         1 <0>         0.1293 
      40 H10       -0.9020    2.4568    2.4932 H         1 <0>         0.1227 
      41 H11       -1.6262    2.4678    0.1252 H         1 <0>         0.1262 
      42 H12        3.0803    1.0270    3.5186 H         1 <0>         0.1329 
      43 H13        2.1989    2.5430    3.8072 H         1 <0>         0.1329 
      44 H14        2.8910    0.6073    8.0945 H         1 <0>         0.1063 
      45 H15        4.4867    1.2209    7.6090 H         1 <0>         0.1054 
      46 H16        4.5605   -3.3007    9.1225 H         1 <0>         0.0686 
      47 H17        3.5748   -4.1122    7.8863 H         1 <0>         0.0794 
      48 H18        5.1793   -3.4741    7.4656 H         1 <0>         0.0778 
      49 H19        1.9225   -0.9577    7.2810 H         1 <0>         0.1198 
      50 H20        2.2829   -2.2923    6.1641 H         1 <0>         0.1233 
      51 H21        2.0156   -2.1137    9.8108 H         1 <0>         0.4142 
      52 H22       -0.0312   -2.1187   11.4764 H         1 <0>         0.1473 
      53 H23       -1.4600   -3.6326   12.8123 H         1 <0>         0.1337 
      54 H24       -1.6140   -6.0402   12.2285 H         1 <0>         0.1349 
      55 H25       -0.3209   -6.9345   10.3133 H         1 <0>         0.1385 
@<TRIPOS>BOND
       1        1        2 1        
       2        1       31 1        
       3        1       32 1        
       4        1       33 1        
       5        2        3 1        
       6        2        4 1        
       7        2       34 1        
       8        3       35 1        
       9        3       36 1        
      10        3       37 1        
      11        4        9 ar       
      12        4        5 ar       
      13        5        6 ar       
      14        5       38 1        
      15        6        7 ar       
      16        6       39 1        
      17        7        8 ar       
      18        7       10 1        
      19        8        9 ar       
      20        8       40 1        
      21        9       41 1        
      22       10       11 1        
      23       11       12 1        
      24       11       42 1        
      25       11       43 1        
      26       12       13 2        
      27       12       14 1        
      28       14       15 1        
      29       15       16 1        
      30       15       44 1        
      31       15       45 1        
      32       16       17 2        
      33       16       18 am       
      34       18       19 1        
      35       18       20 1        
      36       19       46 1        
      37       19       47 1        
      38       19       48 1        
      39       20       21 1        
      40       20       49 1        
      41       20       50 1        
      42       21       22 2        
      43       21       23 am       
      44       23       24 1        
      45       23       51 1        
      46       24       29 ar       
      47       24       25 ar       
      48       25       26 ar       
      49       25       52 1        
      50       26       27 ar       
      51       26       53 1        
      52       27       28 ar       
      53       27       54 1        
      54       28       29 ar       
      55       28       55 1        
      56       29       30 1        

