#        scan_R01_S0057_C0000_L00001_S0001_C0002_G0010_E0001.mol2
#        Mon Jun 19 14:14:16 2017
#        Descriptor:      8    36     1     1     1     5
#        Energy - RMSD - RMSD MassCentre:     -42.0645    999.9999    999.9999
#        Receptor:       1  Surface Point:    57  Conformer:     0
#        Ligand:         1  Surface Point:     1  Conformer:     2
#        BUDE Formal Charge: 0
#        ATOM Count: 27
#        Heavy ATOM Count: 17
@<TRIPOS>MOLECULE
pdb1gcz_ligA.pdb_scan_R01_S0057_C0000_L00001_S0001_C0002_G0010_E0001
27 28 1 0 0
SMALL
GASTEIGER
@<TRIPOS>ATOM
       1 C3        -8.0765   -3.1244    3.2342 C.3       1 YZ9900      0.0513 
       2 C11       -6.7832   -3.9204    3.3831 C.3       1 YZ9900      0.2089 
       3 O1        -4.2906   -4.7383    3.5567 O.2       1 YZ9900     -0.2447 
       4 O2        -5.6646   -3.0376    3.2633 O.3       1 YZ9900     -0.4453 
       5 C6         0.4731   -2.8023    3.3353 C.ar      1 YZ9900      0.0063 
       6 C5        -1.9999   -3.1914    3.3529 C.ar      1 YZ9900      0.0160 
       7 C4         0.0844   -0.0785    2.8977 C.ar      1 YZ9900      0.0796 
       8 O3        -2.3050   -0.3948    2.9051 O.2       1 YZ9900     -0.4208 
       9 C2        -0.8271   -2.2967    3.2323 C.ar      1 YZ9900      0.0353 
      10 C1        -1.0225   -0.9280    3.0123 C.ar      1 YZ9900      0.1519 
      11 C7        -3.4056   -1.2410    3.0194 C.ar      1 YZ9900      0.3521 
      12 C12       -4.4268   -3.5660    3.3689 C.2       1 YZ9900      0.3476 
      13 O4         2.4393    0.2913    2.8811 O.3       1 YZ9900     -0.2865 
      14 O5        -4.5198   -0.7537    2.9225 O.2       1 YZ9900     -0.2442 
      15 C10        1.5765   -1.9483    3.2199 C.ar      1 YZ9900      0.0422 
      16 C9        -3.2376   -2.6929    3.2519 C.ar      1 YZ9900      0.1515 
      17 C8         1.3878   -0.5788    3.0000 C.ar      1 YZ9900      0.1988 
      18 H31       -8.1016   -2.6548    2.2529 H         1 YZ9900      0.0000 
      19 H32       -8.9277   -3.7939    3.3385 H         1 YZ9900      0.0000 
      20 H33       -8.1206   -2.3578    4.0050 H         1 YZ9900      0.0000 
      21 H112      -6.7312   -4.6783    2.6041 H         1 YZ9900      0.0000 
      22 H113      -6.7625   -4.4007    4.3590 H         1 YZ9900      0.0000 
      23 H6         0.6316   -3.8570    3.5050 H         1 YZ9900      0.0000 
      24 H5        -1.8385   -4.2457    3.5225 H         1 YZ9900      0.0000 
      25 H4        -0.0714    0.9767    2.7280 H         1 YZ9900      0.0000 
      26 HO4        2.1260    1.1942    2.7147 H         1 YZ9900      0.0000 
      27 H10        2.5699   -2.3639    3.3033 H         1 YZ9900      0.0000 
@<TRIPOS>BOND
       1       13       17 1        
       2        7       17 ar       
       3        7       10 ar       
       4        8       10 ar       
       5        8       11 ar       
       6       14       11 2        
       7       17       15 ar       
       8       10        9 ar       
       9       11       16 ar       
      10        2        4 1        
      11        2        1 1        
      12       15        5 ar       
      13        9        5 ar       
      14        9        6 ar       
      15       16        6 ar       
      16       16       12 1        
      17        4       12 1        
      18       12        3 2        
      19       18        1 1        
      20       19        1 1        
      21       20        1 1        
      22       21        2 1        
      23       22        2 1        
      24       23        5 1        
      25       24        6 1        
      26       25        7 1        
      27       26       13 1        
      28       27       15 1        
@<TRIPOS>SUBSTRUCTURE
 1 YZ9900 10 RESIDUE 4 A YZ9900 0 ROOT

