#        scan_R01_S0057_C0000_L00001_S0001_C0003_G0010_E0001.mol2
#        Mon Jun 19 14:42:28 2017
#        Descriptor:     28    19    19     1     2     5
#        Energy - RMSD - RMSD MassCentre:     -41.7163    999.9999    999.9999
#        Receptor:       1  Surface Point:    57  Conformer:     0
#        Ligand:         1  Surface Point:     1  Conformer:     3
#        BUDE Formal Charge: 0
#        ATOM Count: 27
#        Heavy ATOM Count: 17
@<TRIPOS>MOLECULE
pdb1gcz_ligA.pdb_scan_R01_S0057_C0000_L00001_S0001_C0003_G0010_E0001
27 28 1 0 0
SMALL
GASTEIGER
@<TRIPOS>ATOM
       1 C3        -6.9858   -3.5898    2.4479 C.3       1 YZ9900      0.0513 
       2 C11       -6.7352   -2.9304    3.8011 C.3       1 YZ9900      0.2089 
       3 O1        -4.3244   -3.7471    3.1431 O.2       1 YZ9900     -0.2447 
       4 O2        -5.6152   -2.0471    3.6997 O.3       1 YZ9900     -0.4453 
       5 C6         0.3899   -1.8091    2.4287 C.ar      1 YZ9900      0.0063 
       6 C5        -2.0386   -2.1992    2.8952 C.ar      1 YZ9900      0.0160 
       7 C4         0.0931    0.9145    2.9343 C.ar      1 YZ9900      0.0796 
       8 O3        -2.2515    0.5972    3.3942 O.2       1 YZ9900     -0.4208 
       9 C2        -0.8653   -1.3041    2.7843 C.ar      1 YZ9900      0.0353 
      10 C1        -1.0145    0.0645    3.0383 C.ar      1 YZ9900      0.1519 
      11 C7        -3.3528   -0.2495    3.4973 C.ar      1 YZ9900      0.3521 
      12 C12       -4.4217   -2.5749    3.3540 C.2       1 YZ9900      0.3476 
      13 O4         2.4056    1.2854    2.4900 O.3       1 YZ9900     -0.2865 
      14 O5        -4.4268    0.2374    3.8103 O.2       1 YZ9900     -0.2442 
      15 C10        1.4942   -0.9546    2.3262 C.ar      1 YZ9900      0.0422 
      16 C9        -3.2330   -1.7012    3.2362 C.ar      1 YZ9900      0.1515 
      17 C8         1.3516    0.4148    2.5790 C.ar      1 YZ9900      0.1988 
      18 H31       -6.1088   -4.1648    2.1575 H         1 YZ9900      0.0000 
      19 H32       -7.8461   -4.2517    2.5216 H         1 YZ9900      0.0000 
      20 H33       -7.1806   -2.8224    1.7018 H         1 YZ9900      0.0000 
      21 H112      -6.5263   -3.6960    4.5452 H         1 YZ9900      0.0000 
      22 H113      -7.6161   -2.3653    4.0985 H         1 YZ9900      0.0000 
      23 H6         0.5126   -2.8638    2.2313 H         1 YZ9900      0.0000 
      24 H5        -1.9131   -3.2535    2.6972 H         1 YZ9900      0.0000 
      25 H4        -0.0270    1.9696    3.1313 H         1 YZ9900      0.0000 
      26 HO4        2.1230    2.1937    2.6802 H         1 YZ9900      0.0000 
      27 H10        2.4522   -1.3697    2.0501 H         1 YZ9900      0.0000 
@<TRIPOS>BOND
       1       13       17 1        
       2        7       17 ar       
       3        7       10 ar       
       4        8       10 ar       
       5        8       11 ar       
       6       14       11 2        
       7       17       15 ar       
       8       10        9 ar       
       9       11       16 ar       
      10        2        4 1        
      11        2        1 1        
      12       15        5 ar       
      13        9        5 ar       
      14        9        6 ar       
      15       16        6 ar       
      16       16       12 1        
      17        4       12 1        
      18       12        3 2        
      19       18        1 1        
      20       19        1 1        
      21       20        1 1        
      22       21        2 1        
      23       22        2 1        
      24       23        5 1        
      25       24        6 1        
      26       25        7 1        
      27       26       13 1        
      28       27       15 1        
@<TRIPOS>SUBSTRUCTURE
 1 YZ9900 10 RESIDUE 4 A YZ9900 0 ROOT

