#        scan_R01_S0057_C0000_L00001_S0001_C0003_G0010_E0001.mol2
#        Mon Jun 19 14:14:17 2017
#        Descriptor:      9    35    36     1     1     5
#        Energy - RMSD - RMSD MassCentre:     -41.6316    999.9999    999.9999
#        Receptor:       1  Surface Point:    57  Conformer:     0
#        Ligand:         1  Surface Point:     1  Conformer:     3
#        BUDE Formal Charge: 0
#        ATOM Count: 27
#        Heavy ATOM Count: 17
@<TRIPOS>MOLECULE
pdb1gcz_ligA.pdb_scan_R01_S0057_C0000_L00001_S0001_C0003_G0010_E0001
27 28 1 0 0
SMALL
GASTEIGER
@<TRIPOS>ATOM
       1 C3        -7.4385   -3.7489    2.8998 C.3       1 YZ9900      0.0513 
       2 C11       -7.0992   -2.9099    4.1285 C.3       1 YZ9900      0.2089 
       3 O1        -4.8293   -4.1595    3.6835 O.2       1 YZ9900     -0.2447 
       4 O2        -5.8635   -2.2242    3.9099 O.3       1 YZ9900     -0.4453 
       5 C6         0.1166   -3.0581    2.7804 C.ar      1 YZ9900      0.0063 
       6 C5        -2.3440   -3.0156    3.2399 C.ar      1 YZ9900      0.0160 
       7 C4         0.2134   -0.2740    2.8105 C.ar      1 YZ9900      0.0796 
       8 O3        -2.1536   -0.1734    3.2536 O.2       1 YZ9900     -0.4208 
       9 C2        -1.0538   -2.3275    3.0113 C.ar      1 YZ9900      0.0353 
      10 C1        -1.0052   -0.9285    3.0264 C.ar      1 YZ9900      0.1519 
      11 C7        -3.3655   -0.8257    3.4683 C.ar      1 YZ9900      0.3521 
      12 C12       -4.7574   -2.9667    3.6908 C.2       1 YZ9900      0.3476 
      13 O4         2.5564   -0.3151    2.3729 O.3       1 YZ9900     -0.2865 
      14 O5        -4.3591   -0.1457    3.6653 O.2       1 YZ9900     -0.2442 
      15 C10        1.3326   -2.3985    2.5650 C.ar      1 YZ9900      0.0422 
      16 C9        -3.4551   -2.3029    3.4594 C.ar      1 YZ9900      0.1515 
      17 C8         1.3879   -0.9998    2.5790 C.ar      1 YZ9900      0.1988 
      18 H31       -6.6527   -4.4831    2.7345 H         1 YZ9900      0.0000 
      19 H32       -8.3853   -4.2601    3.0608 H         1 YZ9900      0.0000 
      20 H33       -7.5190   -3.1007    2.0298 H         1 YZ9900      0.0000 
      21 H112      -7.0045   -3.5587    4.9966 H         1 YZ9900      0.0000 
      22 H113      -7.8904   -2.1836    4.3022 H         1 YZ9900      0.0000 
      23 H6         0.0868   -4.1376    2.7672 H         1 YZ9900      0.0000 
      24 H5        -2.3709   -4.0952    3.2263 H         1 YZ9900      0.0000 
      25 H4         0.2459    0.8055    2.8232 H         1 YZ9900      0.0000 
      26 HO4        2.4069    0.6430    2.3993 H         1 YZ9900      0.0000 
      27 H10        2.2217   -2.9859    2.3891 H         1 YZ9900      0.0000 
@<TRIPOS>BOND
       1       13       17 1        
       2        7       17 ar       
       3        7       10 ar       
       4        8       10 ar       
       5        8       11 ar       
       6       14       11 2        
       7       17       15 ar       
       8       10        9 ar       
       9       11       16 ar       
      10        2        4 1        
      11        2        1 1        
      12       15        5 ar       
      13        9        5 ar       
      14        9        6 ar       
      15       16        6 ar       
      16       16       12 1        
      17        4       12 1        
      18       12        3 2        
      19       18        1 1        
      20       19        1 1        
      21       20        1 1        
      22       21        2 1        
      23       22        2 1        
      24       23        5 1        
      25       24        6 1        
      26       25        7 1        
      27       26       13 1        
      28       27       15 1        
@<TRIPOS>SUBSTRUCTURE
 1 YZ9900 10 RESIDUE 4 A YZ9900 0 ROOT

