#        scan_R01_S0058_C0000_L00001_S0001_C0000_G0010_E0001.mol2
#        Mon Jun 19 14:14:18 2017
#        Descriptor:      2    23    21     2     1     7
#        Energy - RMSD - RMSD MassCentre:     -35.1971    999.9999    999.9999
#        Receptor:       1  Surface Point:    58  Conformer:     0
#        Ligand:         1  Surface Point:     1  Conformer:     0
#        BUDE Formal Charge: 0
#        ATOM Count: 27
#        Heavy ATOM Count: 17
@<TRIPOS>MOLECULE
pdb1gcz_ligA.pdb_scan_R01_S0058_C0000_L00001_S0001_C0000_G0010_E0001
27 28 1 0 0
SMALL
GASTEIGER
@<TRIPOS>ATOM
       1 C3         0.0600    3.5347    2.6616 C.3       1 YZ9900      0.0513 
       2 C11        0.3263    2.8759    3.9848 C.3       1 YZ9900      0.2089 
       3 O1        -2.5190    1.0009    3.6765 O.2       1 YZ9900     -0.2447 
       4 O2        -0.9467    2.3600    4.5453 O.3       1 YZ9900     -0.4453 
       5 C6        -0.1981   -3.7006    3.9177 C.ar      1 YZ9900      0.0063 
       6 C5        -0.9788   -1.3115    4.1249 C.ar      1 YZ9900      0.0160 
       7 C4         1.3225   -3.3833    6.4112 C.ar      1 YZ9900      0.0796 
       8 O3         0.5161   -1.1187    6.5105 O.2       1 YZ9900     -0.4208 
       9 C2        -0.1987   -2.4809    4.6355 C.ar      1 YZ9900      0.0353 
      10 C1         0.5468   -2.3462    5.8469 C.ar      1 YZ9900      0.1519 
      11 C7        -0.1030   -0.0576    6.0452 C.ar      1 YZ9900      0.3521 
      12 C12       -1.5077    1.1388    4.2950 C.2       1 YZ9900      0.3476 
      13 O4         1.9978   -5.6503    6.0837 O.3       1 YZ9900     -0.2865 
      14 O5        -0.0302    0.9381    6.6470 O.2       1 YZ9900     -0.2442 
      15 C10        0.5714   -4.7788    4.4437 C.ar      1 YZ9900      0.0422 
      16 C9        -0.8678   -0.1223    4.7930 C.ar      1 YZ9900      0.1515 
      17 C8         1.2916   -4.5938    5.6456 C.ar      1 YZ9900      0.1988 
      18 H31       -0.3951    2.8145    1.9815 H         1 YZ9900      0.0000 
      19 H32       -0.6172    4.3767    2.8050 H         1 YZ9900      0.0000 
      20 H33        0.9988    3.8915    2.2380 H         1 YZ9900      0.0000 
      21 H112       0.7576    3.6034    4.6725 H         1 YZ9900      0.0000 
      22 H113       1.0234    2.0495    3.8457 H         1 YZ9900      0.0000 
      23 H6        -0.7614   -3.8106    3.0030 H         1 YZ9900      0.0000 
      24 H5        -1.6112   -1.4028    3.2543 H         1 YZ9900      0.0000 
      25 H4         1.8827   -3.2745    7.3280 H         1 YZ9900      0.0000 
      26 HO4        2.7554   -5.7891    5.5108 H         1 YZ9900      0.0000 
      27 H10        0.6039   -5.7277    3.9288 H         1 YZ9900      0.0000 
@<TRIPOS>BOND
       1       13       17 1        
       2        7       17 ar       
       3        7       10 ar       
       4        8       10 ar       
       5        8       11 ar       
       6       14       11 2        
       7       17       15 ar       
       8       10        9 ar       
       9       11       16 ar       
      10        2        4 1        
      11        2        1 1        
      12       15        5 ar       
      13        9        5 ar       
      14        9        6 ar       
      15       16        6 ar       
      16       16       12 1        
      17        4       12 1        
      18       12        3 2        
      19       18        1 1        
      20       19        1 1        
      21       20        1 1        
      22       21        2 1        
      23       22        2 1        
      24       23        5 1        
      25       24        6 1        
      26       25        7 1        
      27       26       13 1        
      28       27       15 1        
@<TRIPOS>SUBSTRUCTURE
 1 YZ9900 10 RESIDUE 4 A YZ9900 0 ROOT

