#        scan_R01_S0058_C0000_L00001_S0001_C0003_G0010_E0001.mol2
#        Mon Jun 19 14:14:19 2017
#        Descriptor:     17    31    11     1     1     6
#        Energy - RMSD - RMSD MassCentre:     -37.3379    999.9999    999.9999
#        Receptor:       1  Surface Point:    58  Conformer:     0
#        Ligand:         1  Surface Point:     1  Conformer:     3
#        BUDE Formal Charge: 0
#        ATOM Count: 27
#        Heavy ATOM Count: 17
@<TRIPOS>MOLECULE
pdb1gcz_ligA.pdb_scan_R01_S0058_C0000_L00001_S0001_C0003_G0010_E0001
27 28 1 0 0
SMALL
GASTEIGER
@<TRIPOS>ATOM
       1 C3         0.4774   -7.1668    6.9680 C.3       1 YZ9900      0.0513 
       2 C11        1.2140   -5.9629    7.5482 C.3       1 YZ9900      0.2089 
       3 O1         1.1931   -5.3979    4.9806 O.2       1 YZ9900     -0.2447 
       4 O2         0.6487   -4.7598    7.0209 O.3       1 YZ9900     -0.4453 
       5 C6        -0.4030   -1.6599    1.8231 C.ar      1 YZ9900      0.0063 
       6 C5         0.1517   -3.1324    3.7702 C.ar      1 YZ9900      0.0160 
       7 C4        -1.5545    0.2244    3.5216 C.ar      1 YZ9900      0.0796 
       8 O3        -1.0453   -1.1531    5.4328 O.2       1 YZ9900     -0.4208 
       9 C2        -0.4272   -1.8946    3.2019 C.ar      1 YZ9900      0.0353 
      10 C1        -1.0059   -0.9478    4.0555 C.ar      1 YZ9900      0.1519 
      11 C7        -0.4990   -2.3198    5.9628 C.ar      1 YZ9900      0.3521 
      12 C12        0.6927   -4.5721    5.6847 C.2       1 YZ9900      0.3476 
      13 O4        -2.0824    1.6262    1.6671 O.3       1 YZ9900     -0.2865 
      14 O5        -0.5439   -2.4798    7.1714 O.2       1 YZ9900     -0.2442 
      15 C10       -0.9531   -0.4859    1.2945 C.ar      1 YZ9900      0.0422 
      16 C9         0.1208   -3.3428    5.0914 C.ar      1 YZ9900      0.1515 
      17 C8        -1.5331    0.4647    2.1427 C.ar      1 YZ9900      0.1988 
      18 H31        0.5870   -7.1710    5.8855 H         1 YZ9900      0.0000 
      19 H32        0.8987   -8.0816    7.3795 H         1 YZ9900      0.0000 
      20 H33       -0.5777   -7.1046    7.2261 H         1 YZ9900      0.0000 
      21 H112       2.2667   -6.0166    7.2788 H         1 YZ9900      0.0000 
      22 H113       1.1156   -5.9644    8.6317 H         1 YZ9900      0.0000 
      23 H6         0.0417   -2.3857    1.1585 H         1 YZ9900      0.0000 
      24 H5         0.5958   -3.8566    3.1033 H         1 YZ9900      0.0000 
      25 H4        -1.9998    0.9519    4.1842 H         1 YZ9900      0.0000 
      26 HO4       -2.4526    2.1568    2.3899 H         1 YZ9900      0.0000 
      27 H10       -0.9215   -0.3289    0.2265 H         1 YZ9900      0.0000 
@<TRIPOS>BOND
       1       13       17 1        
       2        7       17 ar       
       3        7       10 ar       
       4        8       10 ar       
       5        8       11 ar       
       6       14       11 2        
       7       17       15 ar       
       8       10        9 ar       
       9       11       16 ar       
      10        2        4 1        
      11        2        1 1        
      12       15        5 ar       
      13        9        5 ar       
      14        9        6 ar       
      15       16        6 ar       
      16       16       12 1        
      17        4       12 1        
      18       12        3 2        
      19       18        1 1        
      20       19        1 1        
      21       20        1 1        
      22       21        2 1        
      23       22        2 1        
      24       23        5 1        
      25       24        6 1        
      26       25        7 1        
      27       26       13 1        
      28       27       15 1        
@<TRIPOS>SUBSTRUCTURE
 1 YZ9900 10 RESIDUE 4 A YZ9900 0 ROOT

