#        scan_R01_S0059_C0000_L00001_S0001_C0000_G0010_E0001.mol2
#        Mon Jun 19 14:42:30 2017
#        Descriptor:     21    31    16     2     3     5
#        Energy - RMSD - RMSD MassCentre:     -43.5846    999.9999    999.9999
#        Receptor:       1  Surface Point:    59  Conformer:     0
#        Ligand:         1  Surface Point:     1  Conformer:     0
#        BUDE Formal Charge: 0
#        ATOM Count: 27
#        Heavy ATOM Count: 17
@<TRIPOS>MOLECULE
pdb1gcz_ligA.pdb_scan_R01_S0059_C0000_L00001_S0001_C0000_G0010_E0001
27 28 1 0 0
SMALL
GASTEIGER
@<TRIPOS>ATOM
       1 C3        -3.9600   -1.5924    1.0939 C.3       1 YZ9900      0.0513 
       2 C11       -3.4877   -0.8836    2.3310 C.3       1 YZ9900      0.2089 
       3 O1        -0.3956   -2.3164    2.0277 O.2       1 YZ9900     -0.2447 
       4 O2        -2.3449   -1.6244    2.9194 O.3       1 YZ9900     -0.4453 
       5 C6         2.3335    2.1539    1.6859 C.ar      1 YZ9900      0.0063 
       6 C5         0.7478    0.2516    2.1624 C.ar      1 YZ9900      0.0160 
       7 C4         1.3634    3.5209    4.0985 C.ar      1 YZ9900      0.0796 
       8 O3        -0.1084    1.6519    4.4579 O.2       1 YZ9900     -0.4208 
       9 C2         1.3382    1.5804    2.5125 C.ar      1 YZ9900      0.0353 
      10 C1         0.8797    2.2604    3.6824 C.ar      1 YZ9900      0.1519 
      11 C7        -0.6919    0.5208    4.1326 C.ar      1 YZ9900      0.3521 
      12 C12       -1.0261   -1.4749    2.5920 C.2       1 YZ9900      0.3476 
      13 O4         2.8973    5.2574    3.5203 O.3       1 YZ9900     -0.2865 
      14 O5        -1.5429    0.1158    4.8186 O.2       1 YZ9900     -0.2442 
      15 C10        2.8534    3.4270    2.0604 C.ar      1 YZ9900      0.0422 
      16 C9        -0.2838   -0.2169    2.9299 C.ar      1 YZ9900      0.1515 
      17 C8         2.3657    4.0582    3.2271 C.ar      1 YZ9900      0.1988 
      18 H31       -3.1397   -1.6633    0.3795 H         1 YZ9900      0.0000 
      19 H32       -4.3001   -2.5940    1.3568 H         1 YZ9900      0.0000 
      20 H33       -4.7833   -1.0346    0.6477 H         1 YZ9900      0.0000 
      21 H112      -4.3011   -0.8358    3.0551 H         1 YZ9900      0.0000 
      22 H113      -3.1713    0.1269    2.0726 H         1 YZ9900      0.0000 
      23 H6         2.6869    1.6445    0.8017 H         1 YZ9900      0.0000 
      24 H5         1.1246   -0.3214    1.3282 H         1 YZ9900      0.0000 
      25 H4         1.0127    4.0286    4.9848 H         1 YZ9900      0.0000 
      26 HO4        2.5821    5.9102    2.8909 H         1 YZ9900      0.0000 
      27 H10        3.6125    3.9046    1.4586 H         1 YZ9900      0.0000 
@<TRIPOS>BOND
       1       13       17 1        
       2        7       17 ar       
       3        7       10 ar       
       4        8       10 ar       
       5        8       11 ar       
       6       14       11 2        
       7       17       15 ar       
       8       10        9 ar       
       9       11       16 ar       
      10        2        4 1        
      11        2        1 1        
      12       15        5 ar       
      13        9        5 ar       
      14        9        6 ar       
      15       16        6 ar       
      16       16       12 1        
      17        4       12 1        
      18       12        3 2        
      19       18        1 1        
      20       19        1 1        
      21       20        1 1        
      22       21        2 1        
      23       22        2 1        
      24       23        5 1        
      25       24        6 1        
      26       25        7 1        
      27       26       13 1        
      28       27       15 1        
@<TRIPOS>SUBSTRUCTURE
 1 YZ9900 10 RESIDUE 4 A YZ9900 0 ROOT

