#        scan_R01_S0059_C0000_L00001_S0001_C0000_G0010_E0001.mol2
#        Mon Jun 19 14:14:19 2017
#        Descriptor:     36    18    14     1     2     5
#        Energy - RMSD - RMSD MassCentre:     -39.0589    999.9999    999.9999
#        Receptor:       1  Surface Point:    59  Conformer:     0
#        Ligand:         1  Surface Point:     1  Conformer:     0
#        BUDE Formal Charge: 0
#        ATOM Count: 27
#        Heavy ATOM Count: 17
@<TRIPOS>MOLECULE
pdb1gcz_ligA.pdb_scan_R01_S0059_C0000_L00001_S0001_C0000_G0010_E0001
27 28 1 0 0
SMALL
GASTEIGER
@<TRIPOS>ATOM
       1 C3         3.9284    0.7673    1.9242 C.3       1 YZ9900      0.0513 
       2 C11        2.8486    1.1562    2.8930 C.3       1 YZ9900      0.2089 
       3 O1         0.6166    1.5304    0.3270 O.2       1 YZ9900     -0.2447 
       4 O2         1.8145    1.9522    2.1874 O.3       1 YZ9900     -0.4453 
       5 C6        -2.8763   -2.0041    2.0168 C.ar      1 YZ9900      0.0063 
       6 C5        -1.1405   -0.2070    1.6740 C.ar      1 YZ9900      0.0160 
       7 C4        -3.3054   -1.0194    4.7511 C.ar      1 YZ9900      0.0796 
       8 O3        -1.6348    0.6561    4.3148 O.2       1 YZ9900     -0.4208 
       9 C2        -2.1552   -0.8987    2.5276 C.ar      1 YZ9900      0.0353 
      10 C1        -2.3785   -0.4340    3.8601 C.ar      1 YZ9900      0.1519 
      11 C7        -0.6891    1.2341    3.6096 C.ar      1 YZ9900      0.3521 
      12 C12        0.7321    1.4603    1.5127 C.2       1 YZ9900      0.3476 
      13 O4        -4.9119   -2.7755    4.9453 O.3       1 YZ9900     -0.2865 
      14 O5        -0.0878    2.1071    4.0943 O.2       1 YZ9900     -0.2442 
      15 C10       -3.8229   -2.6327    2.8771 C.ar      1 YZ9900      0.0422 
      16 C9        -0.3932    0.7892    2.2415 C.ar      1 YZ9900      0.1515 
      17 C8        -4.0059   -2.1345    4.1870 C.ar      1 YZ9900      0.1988 
      18 H31        3.4937    0.1930    1.1060 H         1 YZ9900      0.0000 
      19 H32        4.4002    1.6659    1.5265 H         1 YZ9900      0.0000 
      20 H33        4.6754    0.1613    2.4369 H         1 YZ9900      0.0000 
      21 H112       3.2797    1.7522    3.6974 H         1 YZ9900      0.0000 
      22 H113       2.3936    0.2577    3.3101 H         1 YZ9900      0.0000 
      23 H6        -2.7149   -2.3591    1.0098 H         1 YZ9900      0.0000 
      24 H5        -1.0015   -0.4855    0.6399 H         1 YZ9900      0.0000 
      25 H4        -3.4696   -0.6620    5.7569 H         1 YZ9900      0.0000 
      26 HO4       -4.5704   -3.6380    5.1923 H         1 YZ9900      0.0000 
      27 H10       -4.3947   -3.4813    2.5315 H         1 YZ9900      0.0000 
@<TRIPOS>BOND
       1       13       17 1        
       2        7       17 ar       
       3        7       10 ar       
       4        8       10 ar       
       5        8       11 ar       
       6       14       11 2        
       7       17       15 ar       
       8       10        9 ar       
       9       11       16 ar       
      10        2        4 1        
      11        2        1 1        
      12       15        5 ar       
      13        9        5 ar       
      14        9        6 ar       
      15       16        6 ar       
      16       16       12 1        
      17        4       12 1        
      18       12        3 2        
      19       18        1 1        
      20       19        1 1        
      21       20        1 1        
      22       21        2 1        
      23       22        2 1        
      24       23        5 1        
      25       24        6 1        
      26       25        7 1        
      27       26       13 1        
      28       27       15 1        
@<TRIPOS>SUBSTRUCTURE
 1 YZ9900 10 RESIDUE 4 A YZ9900 0 ROOT

