#        scan_R01_S0059_C0000_L00001_S0001_C0003_G0010_E0001.mol2
#        Mon Jun 19 14:42:31 2017
#        Descriptor:     18    32    25     2     3     5
#        Energy - RMSD - RMSD MassCentre:     -45.3306    999.9999    999.9999
#        Receptor:       1  Surface Point:    59  Conformer:     0
#        Ligand:         1  Surface Point:     1  Conformer:     3
#        BUDE Formal Charge: 0
#        ATOM Count: 27
#        Heavy ATOM Count: 17
@<TRIPOS>MOLECULE
pdb1gcz_ligA.pdb_scan_R01_S0059_C0000_L00001_S0001_C0003_G0010_E0001
27 28 1 0 0
SMALL
GASTEIGER
@<TRIPOS>ATOM
       1 C3         3.4044    6.7961    4.9588 C.3       1 YZ9900      0.0513 
       2 C11        1.9959    6.6363    5.5238 C.3       1 YZ9900      0.2089 
       3 O1         1.7060    5.7113    3.0800 O.2       1 YZ9900     -0.2447 
       4 O2         1.5170    5.3186    5.2425 O.3       1 YZ9900     -0.4453 
       5 C6         0.1754    1.4164    0.6920 C.ar      1 YZ9900      0.0063 
       6 C5         0.7981    3.2012    2.3335 C.ar      1 YZ9900      0.0160 
       7 C4        -0.5040   -0.3142    2.7669 C.ar      1 YZ9900      0.0796 
       8 O3         0.0810    1.3671    4.3918 O.2       1 YZ9900     -0.4208 
       9 C2         0.3045    1.8420    2.0184 C.ar      1 YZ9900      0.0353 
      10 C1        -0.0368    0.9724    3.0610 C.ar      1 YZ9900      0.1519 
      11 C7         0.5460    2.6474    4.6832 C.ar      1 YZ9900      0.3521 
      12 C12        1.4072    4.9475    3.9491 C.2       1 YZ9900      0.3476 
      13 O4        -1.0967   -2.0133    1.2034 O.3       1 YZ9900     -0.2865 
      14 O5         0.6416    2.9730    5.8551 O.2       1 YZ9900     -0.2442 
      15 C10       -0.2923    0.1288    0.4035 C.ar      1 YZ9900      0.0422 
      16 C9         0.9163    3.5938    3.6073 C.ar      1 YZ9900      0.1515 
      17 C8        -0.6353   -0.7455    1.4416 C.ar      1 YZ9900      0.1988 
      18 H31        3.3802    6.6528    3.8804 H         1 YZ9900      0.0000 
      19 H32        3.7739    7.7942    5.1845 H         1 YZ9900      0.0000 
      20 H33        4.0613    6.0550    5.4092 H         1 YZ9900      0.0000 
      21 H112       1.3348    7.3676    5.0638 H         1 YZ9900      0.0000 
      22 H113       2.0166    6.7917    6.6004 H         1 YZ9900      0.0000 
      23 H6         0.4368    2.0818   -0.1175 H         1 YZ9900      0.0000 
      24 H5         1.0588    3.8645    1.5220 H         1 YZ9900      0.0000 
      25 H4        -0.7661   -0.9815    3.5747 H         1 YZ9900      0.0000 
      26 HO4       -1.2676   -2.4827    2.0349 H         1 YZ9900      0.0000 
      27 H10       -0.3828   -0.1751   -0.6289 H         1 YZ9900      0.0000 
@<TRIPOS>BOND
       1       13       17 1        
       2        7       17 ar       
       3        7       10 ar       
       4        8       10 ar       
       5        8       11 ar       
       6       14       11 2        
       7       17       15 ar       
       8       10        9 ar       
       9       11       16 ar       
      10        2        4 1        
      11        2        1 1        
      12       15        5 ar       
      13        9        5 ar       
      14        9        6 ar       
      15       16        6 ar       
      16       16       12 1        
      17        4       12 1        
      18       12        3 2        
      19       18        1 1        
      20       19        1 1        
      21       20        1 1        
      22       21        2 1        
      23       22        2 1        
      24       23        5 1        
      25       24        6 1        
      26       25        7 1        
      27       26       13 1        
      28       27       15 1        
@<TRIPOS>SUBSTRUCTURE
 1 YZ9900 10 RESIDUE 4 A YZ9900 0 ROOT

