#        scan_R01_S0060_C0000_L00001_S0001_C0000_G0010_E0001.mol2
#        Mon Jun 19 14:14:21 2017
#        Descriptor:      6    36    13     3     1     6
#        Energy - RMSD - RMSD MassCentre:     -39.1161    999.9999    999.9999
#        Receptor:       1  Surface Point:    60  Conformer:     0
#        Ligand:         1  Surface Point:     1  Conformer:     0
#        BUDE Formal Charge: 0
#        ATOM Count: 27
#        Heavy ATOM Count: 17
@<TRIPOS>MOLECULE
pdb1gcz_ligA.pdb_scan_R01_S0060_C0000_L00001_S0001_C0000_G0010_E0001
27 28 1 0 0
SMALL
GASTEIGER
@<TRIPOS>ATOM
       1 C3         1.0425    3.3202    1.2854 C.3       1 YZ9900      0.0513 
       2 C11        0.9404    1.8284    1.1441 C.3       1 YZ9900      0.2089 
       3 O1         3.4566    1.3939    3.4213 O.2       1 YZ9900     -0.2447 
       4 O2         2.2255    1.2048    1.5444 O.3       1 YZ9900     -0.4453 
       5 C6         0.6981   -1.4479    6.8656 C.ar      1 YZ9900      0.0063 
       6 C5         1.7680   -0.3224    4.8786 C.ar      1 YZ9900      0.0160 
       7 C4        -0.3144   -3.5530    5.0841 C.ar      1 YZ9900      0.0796 
       8 O3         0.7476   -2.3971    3.2607 O.2       1 YZ9900     -0.4208 
       9 C2         0.9628   -1.4323    5.4755 C.ar      1 YZ9900      0.0353 
      10 C1         0.4621   -2.4656    4.6252 C.ar      1 YZ9900      0.1519 
      11 C7         1.3910   -1.3965    2.7034 C.ar      1 YZ9900      0.3521 
      12 C12        2.5921    0.8427    2.8107 C.2       1 YZ9900      0.3476 
      13 O4        -1.2886   -4.5033    7.0463 O.3       1 YZ9900     -0.2865 
      14 O5         1.5383   -1.4042    1.5472 O.2       1 YZ9900     -0.2442 
      15 C10       -0.0837   -2.5231    7.3795 C.ar      1 YZ9900      0.0422 
      16 C9         1.9114   -0.2906    3.5179 C.ar      1 YZ9900      0.1515 
      17 C8        -0.5556   -3.5202    6.4959 C.ar      1 YZ9900      0.1988 
      18 H31        1.2865    3.5721    2.3175 H         1 YZ9900      0.0000 
      19 H32        1.8251    3.6947    0.6255 H         1 YZ9900      0.0000 
      20 H33        0.0902    3.7766    1.0152 H         1 YZ9900      0.0000 
      21 H112       0.7218    1.5759    0.1065 H         1 YZ9900      0.0000 
      22 H113       0.1409    1.4565    1.7848 H         1 YZ9900      0.0000 
      23 H6         1.0756   -0.6719    7.5148 H         1 YZ9900      0.0000 
      24 H5         2.2231    0.4321    5.5030 H         1 YZ9900      0.0000 
      25 H4        -0.6887   -4.3311    4.4354 H         1 YZ9900      0.0000 
      26 HO4       -2.1460   -4.1575    7.3049 H         1 YZ9900      0.0000 
      27 H10       -0.3133   -2.5755    8.4335 H         1 YZ9900      0.0000 
@<TRIPOS>BOND
       1       13       17 1        
       2        7       17 ar       
       3        7       10 ar       
       4        8       10 ar       
       5        8       11 ar       
       6       14       11 2        
       7       17       15 ar       
       8       10        9 ar       
       9       11       16 ar       
      10        2        4 1        
      11        2        1 1        
      12       15        5 ar       
      13        9        5 ar       
      14        9        6 ar       
      15       16        6 ar       
      16       16       12 1        
      17        4       12 1        
      18       12        3 2        
      19       18        1 1        
      20       19        1 1        
      21       20        1 1        
      22       21        2 1        
      23       22        2 1        
      24       23        5 1        
      25       24        6 1        
      26       25        7 1        
      27       26       13 1        
      28       27       15 1        
@<TRIPOS>SUBSTRUCTURE
 1 YZ9900 10 RESIDUE 4 A YZ9900 0 ROOT

