#        1GCZ_R01_S0001_C0000_L00005_S0001_C0006_G0010_E0001.mol2
#        Tue Jun  6 14:05:44 2017
#        Descriptor:     11     7    10    11     9    15
#        Energy - RMSD - RMSD MassCentre:     -56.9398    999.9999    999.9999
#        Receptor:       1  Surface Point:     1  Conformer:     0
#        Ligand:         5  Surface Point:     1  Conformer:     6
#        BUDE Formal Charge: 0
#        ATOM Count: 55
#        Heavy ATOM Count: 30
@<TRIPOS>MOLECULE
ZINC61464195_1GCZ_R01_S0001_C0000_L00005_S0001_C0006_G0010_E0001
 55 56 0 0 0
SMALL
USER_CHARGES
@<TRIPOS>ATOM
       1 C1         9.4720    0.5834    7.0250 C.3       1 <0>        -0.1456 
       2 C2         8.7021   -0.0067    5.8470 C.3       1 <0>        -0.0579 
       3 C3         9.0814   -1.4747    5.6744 C.3       1 <0>        -0.1456 
       4 C4         7.2194    0.1014    6.1110 C.ar      1 <0>        -0.0771 
       5 C5         6.4389    0.8516    5.2235 C.ar      1 <0>        -0.0943 
       6 C6         5.0484    0.8908    5.3811 C.ar      1 <0>        -0.0923 
       7 C7         4.4303    0.1797    6.4166 C.ar      1 <0>        -0.1041 
       8 C8         5.2067   -0.5303    7.3400 C.ar      1 <0>        -0.1315 
       9 C9         6.5992   -0.5368    7.1957 C.ar      1 <0>        -0.0969 
      10 S1         2.6659    0.1885    6.5568 S.3       1 <0>        -0.0341 
      11 C10        1.9754   -1.1969    5.5996 C.3       1 <0>        -0.1267 
      12 C11        0.4702   -1.1895    5.7192 C.2       1 <0>         0.4864 
      13 O1        -0.1985   -0.7534    4.8300 O.2       1 <0>        -0.4815 
      14 O2        -0.1205   -1.6758    6.8314 O.3       1 <0>        -0.3231 
      15 C12       -1.5486   -1.6477    6.8992 C.3       1 <0>         0.0526 
      16 C13       -2.0252   -0.2153    6.8655 C.2       1 <0>         0.5250 
      17 O3        -2.7906    0.1570    5.9775 O.2       1 <0>        -0.5082 
      18 N1        -1.6179    0.6440    7.7952 N.am      1 <0>        -0.5981 
      19 C14       -0.7033    0.1990    8.8565 C.3       1 <0>         0.0731 
      20 C15       -2.0829    2.0381    7.7608 C.3       1 <0>         0.1010 
      21 C16       -0.9246    2.9613    8.0551 C.2       1 <0>         0.4997 
      22 O4        -1.0296    3.8193    8.9301 O.2       1 <0>        -0.5061 
      23 N2         0.2083    2.8461    7.3679 N.am      1 <0>        -0.6702 
      24 C17        1.2936    3.7112    7.6437 C.ar      1 <0>         0.1553 
      25 C18        2.0322    4.2650    6.5913 C.ar      1 <0>        -0.1106 
      26 C19        3.1007    5.1260    6.8687 C.ar      1 <0>        -0.0959 
      27 C20        3.4370    5.4276    8.1914 C.ar      1 <0>        -0.1208 
      28 C21        2.7075    4.8635    9.2448 C.ar      1 <0>        -0.0919 
      29 C22        1.6338    4.0086    8.9687 C.ar      1 <0>        -0.0639 
      30 Cl1        0.7270    3.3023   10.2751 Cl        1 <0>        -0.0632 
      31 H1         9.2335    0.0265    7.9287 H         1 <0>         0.0596 
      32 H2        10.5402    0.5176    6.8288 H         1 <0>         0.0563 
      33 H3         9.1902    1.6261    7.1559 H         1 <0>         0.0575 
      34 H4         8.9492    0.5416    4.9403 H         1 <0>         0.0784 
      35 H5         8.5413   -1.8909    4.8265 H         1 <0>         0.0596 
      36 H6         8.8209   -2.0244    6.5763 H         1 <0>         0.0574 
      37 H7        10.1521   -1.5535    5.4973 H         1 <0>         0.0563 
      38 H8         6.8910    1.3915    4.4046 H         1 <0>         0.1285 
      39 H9         4.4037    1.4509    4.7200 H         1 <0>         0.1293 
      40 H10        4.7172   -1.0588    8.1447 H         1 <0>         0.1227 
      41 H11        7.1848   -1.0598    7.9372 H         1 <0>         0.1262 
      42 H12        2.2560   -1.0915    4.5536 H         1 <0>         0.1329 
      43 H13        2.3647   -2.1361    5.9872 H         1 <0>         0.1329 
      44 H14       -1.8776   -2.1171    7.8241 H         1 <0>         0.1063 
      45 H15       -1.9634   -2.1874    6.0504 H         1 <0>         0.1054 
      46 H16        0.2254   -0.1509    8.4107 H         1 <0>         0.0686 
      47 H17       -0.4942    1.0305    9.5263 H         1 <0>         0.0794 
      48 H18       -1.1655   -0.6113    9.4165 H         1 <0>         0.0778 
      49 H19       -2.4841    2.2618    6.7746 H         1 <0>         0.1198 
      50 H20       -2.8594    2.1795    8.5098 H         1 <0>         0.1233 
      51 H21        0.2933    2.1411    6.6497 H         1 <0>         0.4142 
      52 H22        1.7775    4.0357    5.5671 H         1 <0>         0.1473 
      53 H23        3.6646    5.5583    6.0552 H         1 <0>         0.1337 
      54 H24        4.2588    6.0949    8.4047 H         1 <0>         0.1349 
      55 H25        2.9702    5.0903   10.2675 H         1 <0>         0.1385 
@<TRIPOS>BOND
       1        1        2 1        
       2        1       31 1        
       3        1       32 1        
       4        1       33 1        
       5        2        3 1        
       6        2        4 1        
       7        2       34 1        
       8        3       35 1        
       9        3       36 1        
      10        3       37 1        
      11        4        9 ar       
      12        4        5 ar       
      13        5        6 ar       
      14        5       38 1        
      15        6        7 ar       
      16        6       39 1        
      17        7        8 ar       
      18        7       10 1        
      19        8        9 ar       
      20        8       40 1        
      21        9       41 1        
      22       10       11 1        
      23       11       12 1        
      24       11       42 1        
      25       11       43 1        
      26       12       13 2        
      27       12       14 1        
      28       14       15 1        
      29       15       16 1        
      30       15       44 1        
      31       15       45 1        
      32       16       17 2        
      33       16       18 am       
      34       18       19 1        
      35       18       20 1        
      36       19       46 1        
      37       19       47 1        
      38       19       48 1        
      39       20       21 1        
      40       20       49 1        
      41       20       50 1        
      42       21       22 2        
      43       21       23 am       
      44       23       24 1        
      45       23       51 1        
      46       24       29 ar       
      47       24       25 ar       
      48       25       26 ar       
      49       25       52 1        
      50       26       27 ar       
      51       26       53 1        
      52       27       28 ar       
      53       27       54 1        
      54       28       29 ar       
      55       28       55 1        
      56       29       30 1        

