#        scan_R01_S0060_C0000_L00001_S0001_C0003_G0010_E0001.mol2
#        Mon Jun 19 14:14:22 2017
#        Descriptor:     21    21    25     3     1     5
#        Energy - RMSD - RMSD MassCentre:     -37.7602    999.9999    999.9999
#        Receptor:       1  Surface Point:    60  Conformer:     0
#        Ligand:         1  Surface Point:     1  Conformer:     3
#        BUDE Formal Charge: 0
#        ATOM Count: 27
#        Heavy ATOM Count: 17
@<TRIPOS>MOLECULE
pdb1gcz_ligA.pdb_scan_R01_S0060_C0000_L00001_S0001_C0003_G0010_E0001
27 28 1 0 0
SMALL
GASTEIGER
@<TRIPOS>ATOM
       1 C3         1.7118   -6.1437    7.6965 C.3       1 YZ9900      0.0513 
       2 C11        0.3050   -5.5693    7.5563 C.3       1 YZ9900      0.2089 
       3 O1         1.7943   -3.4159    7.3181 O.2       1 YZ9900     -0.2447 
       4 O2         0.2535   -4.7102    6.4143 O.3       1 YZ9900     -0.4453 
       5 C6         2.6251    0.3995    3.9650 C.ar      1 YZ9900      0.0063 
       6 C5         1.8390   -1.6340    5.1956 C.ar      1 YZ9900      0.0160 
       7 C4         0.8975   -0.1592    1.8520 C.ar      1 YZ9900      0.0796 
       8 O3         0.1037   -2.1291    2.9915 O.2       1 YZ9900     -0.4208 
       9 C2         1.8028   -0.7306    4.0239 C.ar      1 YZ9900      0.0353 
      10 C1         0.9347   -1.0114    2.9621 C.ar      1 YZ9900      0.1519 
      11 C7         0.1415   -2.9763    4.0965 C.ar      1 YZ9900      0.3521 
      12 C12        1.0635   -3.6303    6.3972 C.2       1 YZ9900      0.3476 
      13 O4         1.6464    1.7773    0.6807 O.3       1 YZ9900     -0.2865 
      14 O5        -0.5943   -3.9494    4.1022 O.2       1 YZ9900     -0.2442 
      15 C10        2.5840    1.2484    2.8524 C.ar      1 YZ9900      0.0422 
      16 C9         1.0463   -2.7113    5.2373 C.ar      1 YZ9900      0.1515 
      17 C8         1.7181    0.9732    1.7875 C.ar      1 YZ9900      0.1988 
      18 H31        2.4224   -5.3313    7.8344 H         1 YZ9900      0.0000 
      19 H32        1.7476   -6.8078    8.5575 H         1 YZ9900      0.0000 
      20 H33        1.9667   -6.7006    6.7974 H         1 YZ9900      0.0000 
      21 H112       0.0543   -5.0003    8.4490 H         1 YZ9900      0.0000 
      22 H113      -0.4080   -6.3814    7.4308 H         1 YZ9900      0.0000 
      23 H6         3.2973    0.6225    4.7803 H         1 YZ9900      0.0000 
      24 H5         2.5122   -1.4086    6.0095 H         1 YZ9900      0.0000 
      25 H4         0.2261   -0.3800    1.0353 H         1 YZ9900      0.0000 
      26 HO4        1.0094    1.4278    0.0380 H         1 YZ9900      0.0000 
      27 H10        3.2291    2.1143    2.8318 H         1 YZ9900      0.0000 
@<TRIPOS>BOND
       1       13       17 1        
       2        7       17 ar       
       3        7       10 ar       
       4        8       10 ar       
       5        8       11 ar       
       6       14       11 2        
       7       17       15 ar       
       8       10        9 ar       
       9       11       16 ar       
      10        2        4 1        
      11        2        1 1        
      12       15        5 ar       
      13        9        5 ar       
      14        9        6 ar       
      15       16        6 ar       
      16       16       12 1        
      17        4       12 1        
      18       12        3 2        
      19       18        1 1        
      20       19        1 1        
      21       20        1 1        
      22       21        2 1        
      23       22        2 1        
      24       23        5 1        
      25       24        6 1        
      26       25        7 1        
      27       26       13 1        
      28       27       15 1        
@<TRIPOS>SUBSTRUCTURE
 1 YZ9900 10 RESIDUE 4 A YZ9900 0 ROOT

