#        scan_R01_S0061_C0000_L00001_S0001_C0000_G0010_E0001.mol2
#        Mon Jun 19 14:42:33 2017
#        Descriptor:     26    16    15     1     3     6
#        Energy - RMSD - RMSD MassCentre:     -43.7358    999.9999    999.9999
#        Receptor:       1  Surface Point:    61  Conformer:     0
#        Ligand:         1  Surface Point:     1  Conformer:     0
#        BUDE Formal Charge: 0
#        ATOM Count: 27
#        Heavy ATOM Count: 17
@<TRIPOS>MOLECULE
pdb1gcz_ligA.pdb_scan_R01_S0061_C0000_L00001_S0001_C0000_G0010_E0001
27 28 1 0 0
SMALL
GASTEIGER
@<TRIPOS>ATOM
       1 C3         1.8554   -2.6250    1.8225 C.3       1 YZ9900      0.0513 
       2 C11        1.4245   -1.1951    1.6627 C.3       1 YZ9900      0.2089 
       3 O1        -1.7933   -2.0250    2.4767 O.2       1 YZ9900     -0.2447 
       4 O2        -0.0315   -1.1458    1.3827 O.3       1 YZ9900     -0.4453 
       5 C6        -2.2177    1.1346    6.6463 C.ar      1 YZ9900      0.0063 
       6 C5        -1.7515   -0.0241    4.4554 C.ar      1 YZ9900      0.0160 
       7 C4        -1.4152    3.6847    5.4284 C.ar      1 YZ9900      0.0796 
       8 O3        -1.0045    2.4788    3.3874 O.2       1 YZ9900     -0.4208 
       9 C2        -1.8002    1.2117    5.2963 C.ar      1 YZ9900      0.0353 
      10 C1        -1.4142    2.4615    4.7215 C.ar      1 YZ9900      0.1519 
      11 C7        -0.8856    1.3975    2.6509 C.ar      1 YZ9900      0.3521 
      12 C12       -1.0357   -1.1183    2.3099 C.2       1 YZ9900      0.3476 
      13 O4        -1.8796    4.6505    7.5624 O.3       1 YZ9900     -0.2865 
      14 O5        -0.4876    1.5073    1.5608 O.2       1 YZ9900     -0.2442 
      15 C10       -2.2344    2.3412    7.4048 C.ar      1 YZ9900      0.0422 
      16 C9        -1.2432    0.0785    3.1888 C.ar      1 YZ9900      0.1515 
      17 C8        -1.8426    3.5516    6.7893 C.ar      1 YZ9900      0.1988 
      18 H31        1.2925   -3.0861    2.6341 H         1 YZ9900      0.0000 
      19 H32        1.6664   -3.1669    0.8958 H         1 YZ9900      0.0000 
      20 H33        2.9201   -2.6599    2.0531 H         1 YZ9900      0.0000 
      21 H112       1.9692   -0.7420    0.8343 H         1 YZ9900      0.0000 
      22 H113       1.6368   -0.6467    2.5805 H         1 YZ9900      0.0000 
      23 H6        -2.5135    0.1940    7.0866 H         1 YZ9900      0.0000 
      24 H5        -2.1069   -0.9700    4.8365 H         1 YZ9900      0.0000 
      25 H4        -1.1231    4.6261    4.9869 H         1 YZ9900      0.0000 
      26 HO4       -1.1716    4.6111    8.2095 H         1 YZ9900      0.0000 
      27 H10       -2.5434    2.3306    8.4396 H         1 YZ9900      0.0000 
@<TRIPOS>BOND
       1       13       17 1        
       2        7       17 ar       
       3        7       10 ar       
       4        8       10 ar       
       5        8       11 ar       
       6       14       11 2        
       7       17       15 ar       
       8       10        9 ar       
       9       11       16 ar       
      10        2        4 1        
      11        2        1 1        
      12       15        5 ar       
      13        9        5 ar       
      14        9        6 ar       
      15       16        6 ar       
      16       16       12 1        
      17        4       12 1        
      18       12        3 2        
      19       18        1 1        
      20       19        1 1        
      21       20        1 1        
      22       21        2 1        
      23       22        2 1        
      24       23        5 1        
      25       24        6 1        
      26       25        7 1        
      27       26       13 1        
      28       27       15 1        
@<TRIPOS>SUBSTRUCTURE
 1 YZ9900 10 RESIDUE 4 A YZ9900 0 ROOT

