#        scan_R01_S0061_C0000_L00001_S0001_C0000_G0010_E0001.mol2
#        Mon Jun 19 14:14:23 2017
#        Descriptor:     35     4    33     1     2     6
#        Energy - RMSD - RMSD MassCentre:     -42.7935    999.9999    999.9999
#        Receptor:       1  Surface Point:    61  Conformer:     0
#        Ligand:         1  Surface Point:     1  Conformer:     0
#        BUDE Formal Charge: 0
#        ATOM Count: 27
#        Heavy ATOM Count: 17
@<TRIPOS>MOLECULE
pdb1gcz_ligA.pdb_scan_R01_S0061_C0000_L00001_S0001_C0000_G0010_E0001
27 28 1 0 0
SMALL
GASTEIGER
@<TRIPOS>ATOM
       1 C3        -1.5313   -3.7484    7.4209 C.3       1 YZ9900      0.0513 
       2 C11       -1.5655   -3.4723    5.9450 C.3       1 YZ9900      0.2089 
       3 O1        -3.3670   -0.6122    6.4744 O.2       1 YZ9900     -0.2447 
       4 O2        -2.7237   -2.5997    5.6319 O.3       1 YZ9900     -0.4453 
       5 C6         0.0623    2.7011    4.2812 C.ar      1 YZ9900      0.0063 
       6 C5        -1.4483    0.8078    4.9836 C.ar      1 YZ9900      0.0160 
       7 C4         0.4040    1.4115    1.6639 C.ar      1 YZ9900      0.0796 
       8 O3        -1.0515   -0.3415    2.4370 O.2       1 YZ9900     -0.4208 
       9 C2        -0.5789    1.4789    3.9685 C.ar      1 YZ9900      0.0353 
      10 C1        -0.4009    0.8672    2.6896 C.ar      1 YZ9900      0.1519 
      11 C7        -1.7616   -0.9848    3.3356 C.ar      1 YZ9900      0.3521 
      12 C12       -2.7435   -1.2333    5.6685 C.2       1 YZ9900      0.3476 
      13 O4         1.8268    3.2551    1.1357 O.3       1 YZ9900     -0.2865 
      14 O5        -2.2263   -2.0137    3.0458 O.2       1 YZ9900     -0.2442 
      15 C10        0.8883    3.2913    3.2808 C.ar      1 YZ9900      0.0422 
      16 C9        -1.9640   -0.4224    4.6773 C.ar      1 YZ9900      0.1515 
      17 C8         1.0317    2.6456    2.0318 C.ar      1 YZ9900      0.1988 
      18 H31       -1.4611   -2.8068    7.9657 H         1 YZ9900      0.0000 
      19 H32       -2.4423   -4.2703    7.7139 H         1 YZ9900      0.0000 
      20 H33       -0.6661   -4.3688    7.6544 H         1 YZ9900      0.0000 
      21 H112      -1.6617   -4.4124    5.4017 H         1 YZ9900      0.0000 
      22 H113      -0.6435   -2.9731    5.6470 H         1 YZ9900      0.0000 
      23 H6        -0.0699    3.1706    5.2447 H         1 YZ9900      0.0000 
      24 H5        -1.6630    1.2801    5.9307 H         1 YZ9900      0.0000 
      25 H4         0.5330    0.9439    0.6990 H         1 YZ9900      0.0000 
      26 HO4        2.7420    3.1789    1.4152 H         1 YZ9900      0.0000 
      27 H10        1.3996    4.2225    3.4753 H         1 YZ9900      0.0000 
@<TRIPOS>BOND
       1       13       17 1        
       2        7       17 ar       
       3        7       10 ar       
       4        8       10 ar       
       5        8       11 ar       
       6       14       11 2        
       7       17       15 ar       
       8       10        9 ar       
       9       11       16 ar       
      10        2        4 1        
      11        2        1 1        
      12       15        5 ar       
      13        9        5 ar       
      14        9        6 ar       
      15       16        6 ar       
      16       16       12 1        
      17        4       12 1        
      18       12        3 2        
      19       18        1 1        
      20       19        1 1        
      21       20        1 1        
      22       21        2 1        
      23       22        2 1        
      24       23        5 1        
      25       24        6 1        
      26       25        7 1        
      27       26       13 1        
      28       27       15 1        
@<TRIPOS>SUBSTRUCTURE
 1 YZ9900 10 RESIDUE 4 A YZ9900 0 ROOT

