#        scan_R01_S0061_C0000_L00001_S0001_C0002_G0010_E0001.mol2
#        Mon Jun 19 14:42:34 2017
#        Descriptor:     25    30    32     1     3     6
#        Energy - RMSD - RMSD MassCentre:     -48.8478    999.9999    999.9999
#        Receptor:       1  Surface Point:    61  Conformer:     0
#        Ligand:         1  Surface Point:     1  Conformer:     2
#        BUDE Formal Charge: 0
#        ATOM Count: 27
#        Heavy ATOM Count: 17
@<TRIPOS>MOLECULE
pdb1gcz_ligA.pdb_scan_R01_S0061_C0000_L00001_S0001_C0002_G0010_E0001
27 28 1 0 0
SMALL
GASTEIGER
@<TRIPOS>ATOM
       1 C3        -3.5427    4.1903   10.1646 C.3       1 YZ9900      0.0513 
       2 C11       -2.6994    4.7455    9.0204 C.3       1 YZ9900      0.2089 
       3 O1        -1.3053    5.1282    6.8245 O.2       1 YZ9900     -0.2447 
       4 O2        -2.4768    3.7179    8.0512 O.3       1 YZ9900     -0.4453 
       5 C6         0.2308    2.5018    2.6732 C.ar      1 YZ9900      0.0063 
       6 C5        -0.7652    3.2742    4.8362 C.ar      1 YZ9900      0.0160 
       7 C4        -0.8238   -0.0492    3.0494 C.ar      1 YZ9900      0.0796 
       8 O3        -1.8054    0.6398    5.1401 O.2       1 YZ9900     -0.4208 
       9 C2        -0.5219    2.2265    3.8197 C.ar      1 YZ9900      0.0353 
      10 C1        -1.0518    0.9446    4.0088 C.ar      1 YZ9900      0.1519 
      11 C7        -2.0317    1.6294    6.0940 C.ar      1 YZ9900      0.3521 
      12 C12       -1.7450    4.0252    6.9591 C.2       1 YZ9900      0.3476 
      13 O4         0.1249   -0.7841    0.9896 O.3       1 YZ9900     -0.2865 
      14 O5        -2.6941    1.3415    7.0772 O.2       1 YZ9900     -0.2442 
      15 C10        0.4558    1.5043    1.7170 C.ar      1 YZ9900      0.0422 
      16 C9        -1.4873    2.9955    5.9279 C.ar      1 YZ9900      0.1515 
      17 C8        -0.0714    0.2205    1.9002 C.ar      1 YZ9900      0.1988 
      18 H31       -3.0120    3.3673   10.6391 H         1 YZ9900      0.0000 
      19 H32       -3.7232    4.9757   10.8954 H         1 YZ9900      0.0000 
      20 H33       -4.4928    3.8325    9.7735 H         1 YZ9900      0.0000 
      21 H112      -1.7432    5.0908    9.4080 H         1 YZ9900      0.0000 
      22 H113      -3.2234    5.5766    8.5530 H         1 YZ9900      0.0000 
      23 H6         0.6428    3.4884    2.5206 H         1 YZ9900      0.0000 
      24 H5        -0.3521    4.2599    4.6811 H         1 YZ9900      0.0000 
      25 H4        -1.2348   -1.0366    3.1997 H         1 YZ9900      0.0000 
      26 HO4       -0.2945   -1.6074    1.2850 H         1 YZ9900      0.0000 
      27 H10        1.0404    1.7428    0.8407 H         1 YZ9900      0.0000 
@<TRIPOS>BOND
       1       13       17 1        
       2        7       17 ar       
       3        7       10 ar       
       4        8       10 ar       
       5        8       11 ar       
       6       14       11 2        
       7       17       15 ar       
       8       10        9 ar       
       9       11       16 ar       
      10        2        4 1        
      11        2        1 1        
      12       15        5 ar       
      13        9        5 ar       
      14        9        6 ar       
      15       16        6 ar       
      16       16       12 1        
      17        4       12 1        
      18       12        3 2        
      19       18        1 1        
      20       19        1 1        
      21       20        1 1        
      22       21        2 1        
      23       22        2 1        
      24       23        5 1        
      25       24        6 1        
      26       25        7 1        
      27       26       13 1        
      28       27       15 1        
@<TRIPOS>SUBSTRUCTURE
 1 YZ9900 10 RESIDUE 4 A YZ9900 0 ROOT

