#        scan_R01_S0061_C0000_L00001_S0001_C0003_G0010_E0001.mol2
#        Mon Jun 19 14:42:34 2017
#        Descriptor:     25    30    33     1     3     6
#        Energy - RMSD - RMSD MassCentre:     -45.9867    999.9999    999.9999
#        Receptor:       1  Surface Point:    61  Conformer:     0
#        Ligand:         1  Surface Point:     1  Conformer:     3
#        BUDE Formal Charge: 0
#        ATOM Count: 27
#        Heavy ATOM Count: 17
@<TRIPOS>MOLECULE
pdb1gcz_ligA.pdb_scan_R01_S0061_C0000_L00001_S0001_C0003_G0010_E0001
27 28 1 0 0
SMALL
GASTEIGER
@<TRIPOS>ATOM
       1 C3        -2.0861    5.0903    9.5777 C.3       1 YZ9900      0.0513 
       2 C11       -3.3240    4.3935    9.0204 C.3       1 YZ9900      0.2089 
       3 O1        -2.0175    5.0125    6.8245 O.2       1 YZ9900     -0.2447 
       4 O2        -2.9263    3.4202    8.0512 O.3       1 YZ9900     -0.4453 
       5 C6        -0.0486    2.6928    2.6732 C.ar      1 YZ9900      0.0063 
       6 C5        -1.1637    3.2804    4.8362 C.ar      1 YZ9900      0.0160 
       7 C4        -0.6443   -0.0026    3.0494 C.ar      1 YZ9900      0.0796 
       8 O3        -1.7306    0.5054    5.1401 O.2       1 YZ9900     -0.4208 
       9 C2        -0.7422    2.2908    3.8197 C.ar      1 YZ9900      0.0353 
      10 C1        -1.0414    0.9364    4.0088 C.ar      1 YZ9900      0.1519 
      11 C7        -2.1253    1.4406    6.0940 C.ar      1 YZ9900      0.3521 
      12 C12       -2.2590    3.8499    6.9591 C.2       1 YZ9900      0.3476 
      13 O4         0.4176   -0.5616    0.9896 O.3       1 YZ9900     -0.2865 
      14 O5        -2.7277    1.0421    7.0772 O.2       1 YZ9900     -0.2442 
      15 C10        0.3462    1.7495    1.7170 C.ar      1 YZ9900      0.0422 
      16 C9        -1.8264    2.8805    5.9279 C.ar      1 YZ9900      0.1515 
      17 C8         0.0499    0.3936    1.9002 C.ar      1 YZ9900      0.1988 
      18 H31       -1.5589    5.5930    8.7694 H         1 YZ9900      0.0000 
      19 H32       -2.3877    5.8215   10.3248 H         1 YZ9900      0.0000 
      20 H33       -1.4306    4.3524   10.0355 H         1 YZ9900      0.0000 
      21 H112      -3.9737    5.1284    8.5498 H         1 YZ9900      0.0000 
      22 H113      -3.8589    3.9010    9.8296 H         1 YZ9900      0.0000 
      23 H6         0.1858    3.7359    2.5206 H         1 YZ9900      0.0000 
      24 H5        -0.9280    4.3229    4.6811 H         1 YZ9900      0.0000 
      25 H4        -0.8775   -1.0465    3.1997 H         1 YZ9900      0.0000 
      26 HO4        0.1475   -1.4453    1.2850 H         1 YZ9900      0.0000 
      27 H10        0.8804    2.0859    0.8407 H         1 YZ9900      0.0000 
@<TRIPOS>BOND
       1       13       17 1        
       2        7       17 ar       
       3        7       10 ar       
       4        8       10 ar       
       5        8       11 ar       
       6       14       11 2        
       7       17       15 ar       
       8       10        9 ar       
       9       11       16 ar       
      10        2        4 1        
      11        2        1 1        
      12       15        5 ar       
      13        9        5 ar       
      14        9        6 ar       
      15       16        6 ar       
      16       16       12 1        
      17        4       12 1        
      18       12        3 2        
      19       18        1 1        
      20       19        1 1        
      21       20        1 1        
      22       21        2 1        
      23       22        2 1        
      24       23        5 1        
      25       24        6 1        
      26       25        7 1        
      27       26       13 1        
      28       27       15 1        
@<TRIPOS>SUBSTRUCTURE
 1 YZ9900 10 RESIDUE 4 A YZ9900 0 ROOT

