#        scan_R01_S0061_C0000_L00001_S0001_C0003_G0010_E0001.mol2
#        Mon Jun 19 14:14:25 2017
#        Descriptor:     27    31    33     1     3     6
#        Energy - RMSD - RMSD MassCentre:     -48.4583    999.9999    999.9999
#        Receptor:       1  Surface Point:    61  Conformer:     0
#        Ligand:         1  Surface Point:     1  Conformer:     3
#        BUDE Formal Charge: 0
#        ATOM Count: 27
#        Heavy ATOM Count: 17
@<TRIPOS>MOLECULE
pdb1gcz_ligA.pdb_scan_R01_S0061_C0000_L00001_S0001_C0003_G0010_E0001
27 28 1 0 0
SMALL
GASTEIGER
@<TRIPOS>ATOM
       1 C3        -2.3384    4.9469    9.6260 C.3       1 YZ9900      0.0513 
       2 C11       -3.5324    4.6675    8.7178 C.3       1 YZ9900      0.2089 
       3 O1        -1.5910    4.9895    6.9745 O.2       1 YZ9900     -0.2447 
       4 O2        -3.1762    3.6700    7.7570 O.3       1 YZ9900     -0.4453 
       5 C6         0.6773    2.4081    3.1428 C.ar      1 YZ9900      0.0063 
       6 C5        -0.7541    3.1854    5.0439 C.ar      1 YZ9900      0.0160 
       7 C4        -0.6955   -0.0141    3.0439 C.ar      1 YZ9900      0.0796 
       8 O3        -2.1030    0.6823    4.8723 O.2       1 YZ9900     -0.4208 
       9 C2        -0.3680    2.1680    4.0409 C.ar      1 YZ9900      0.0353 
      10 C1        -1.0578    0.9508    3.9913 C.ar      1 YZ9900      0.1519 
      11 C7        -2.4627    1.6432    5.8145 C.ar      1 YZ9900      0.3521 
      12 C12       -2.1617    3.9417    6.9087 C.2       1 YZ9900      0.3476 
      13 O4         0.6679   -0.7538    1.2336 O.3       1 YZ9900     -0.2865 
      14 O5        -3.3807    1.3880    6.5764 O.2       1 YZ9900     -0.2442 
      15 C10        1.0355    1.4396    2.1974 C.ar      1 YZ9900      0.0422 
      16 C9        -1.7562    2.9411    5.8965 C.ar      1 YZ9900      0.1515 
      17 C8         0.3497    0.2205    2.1426 C.ar      1 YZ9900      0.1988 
      18 H31       -1.5070    5.3147    9.0281 H         1 YZ9900      0.0000 
      19 H32       -2.6135    5.6960   10.3655 H         1 YZ9900      0.0000 
      20 H33       -2.0448    4.0289   10.1307 H         1 YZ9900      0.0000 
      21 H112      -3.8181    5.5816    8.2018 H         1 YZ9900      0.0000 
      22 H113      -4.3684    4.3115    9.3161 H         1 YZ9900      0.0000 
      23 H6         1.2140    3.3448    3.1752 H         1 YZ9900      0.0000 
      24 H5        -0.2158    4.1212    5.0741 H         1 YZ9900      0.0000 
      25 H4        -1.2306   -0.9517    3.0094 H         1 YZ9900      0.0000 
      26 HO4        0.1043   -1.5347    1.3499 H         1 YZ9900      0.0000 
      27 H10        1.8462    1.6499    1.5154 H         1 YZ9900      0.0000 
@<TRIPOS>BOND
       1       13       17 1        
       2        7       17 ar       
       3        7       10 ar       
       4        8       10 ar       
       5        8       11 ar       
       6       14       11 2        
       7       17       15 ar       
       8       10        9 ar       
       9       11       16 ar       
      10        2        4 1        
      11        2        1 1        
      12       15        5 ar       
      13        9        5 ar       
      14        9        6 ar       
      15       16        6 ar       
      16       16       12 1        
      17        4       12 1        
      18       12        3 2        
      19       18        1 1        
      20       19        1 1        
      21       20        1 1        
      22       21        2 1        
      23       22        2 1        
      24       23        5 1        
      25       24        6 1        
      26       25        7 1        
      27       26       13 1        
      28       27       15 1        
@<TRIPOS>SUBSTRUCTURE
 1 YZ9900 10 RESIDUE 4 A YZ9900 0 ROOT

