#        scan_R01_S0062_C0000_L00001_S0001_C0000_G0010_E0001.mol2
#        Mon Jun 19 14:42:35 2017
#        Descriptor:     19    36     8     1     2     5
#        Energy - RMSD - RMSD MassCentre:     -36.6504    999.9999    999.9999
#        Receptor:       1  Surface Point:    62  Conformer:     0
#        Ligand:         1  Surface Point:     1  Conformer:     0
#        BUDE Formal Charge: 0
#        ATOM Count: 27
#        Heavy ATOM Count: 17
@<TRIPOS>MOLECULE
pdb1gcz_ligA.pdb_scan_R01_S0062_C0000_L00001_S0001_C0000_G0010_E0001
27 28 1 0 0
SMALL
GASTEIGER
@<TRIPOS>ATOM
       1 C3        -4.2565    3.9070    2.5927 C.3       1 YZ9900      0.0513 
       2 C11       -3.8936    2.7492    3.4780 C.3       1 YZ9900      0.2089 
       3 O1        -3.5577    0.7096    0.7516 O.2       1 YZ9900     -0.2447 
       4 O2        -4.1874    1.4771    2.7736 O.3       1 YZ9900     -0.4453 
       5 C6         1.4646   -0.5860    1.5557 C.ar      1 YZ9900      0.0063 
       6 C5        -0.9810    0.0224    1.6509 C.ar      1 YZ9900      0.0160 
       7 C4         1.3011   -1.5337    4.3316 C.ar      1 YZ9900      0.0796 
       8 O3        -1.0246   -0.9177    4.3113 O.2       1 YZ9900     -0.4208 
       9 C2         0.2537   -0.5331    2.2863 C.ar      1 YZ9900      0.0353 
      10 C1         0.1939   -0.9995    3.6354 C.ar      1 YZ9900      0.1519 
      11 C7        -2.1028   -0.3692    3.7992 C.ar      1 YZ9900      0.3521 
      12 C12       -3.3516    0.8088    1.9229 C.2       1 YZ9900      0.3476 
      13 O4         3.6229   -2.0464    4.1099 O.3       1 YZ9900     -0.2865 
      14 O5        -3.0609   -0.3023    4.4598 O.2       1 YZ9900     -0.2442 
      15 C10        2.6131   -1.1145    2.2137 C.ar      1 YZ9900      0.0422 
      16 C9        -2.1017    0.1512    2.4257 C.ar      1 YZ9900      0.1515 
      17 C8         2.5011   -1.5623    3.5495 C.ar      1 YZ9900      0.1988 
      18 H31       -3.6924    3.8442    1.6620 H         1 YZ9900      0.0000 
      19 H32       -5.3237    3.8757    2.3732 H         1 YZ9900      0.0000 
      20 H33       -4.0172    4.8414    3.1004 H         1 YZ9900      0.0000 
      21 H112      -4.4768    2.7984    4.3976 H         1 YZ9900      0.0000 
      22 H113      -2.8314    2.7945    3.7185 H         1 YZ9900      0.0000 
      23 H6         1.5166   -0.2379    0.5348 H         1 YZ9900      0.0000 
      24 H5        -0.9880    0.3136    0.6110 H         1 YZ9900      0.0000 
      25 H4         1.2482   -1.8853    5.3513 H         1 YZ9900      0.0000 
      26 HO4        4.2347   -1.3257    4.2765 H         1 YZ9900      0.0000 
      27 H10        3.5596   -1.1723    1.6966 H         1 YZ9900      0.0000 
@<TRIPOS>BOND
       1       13       17 1        
       2        7       17 ar       
       3        7       10 ar       
       4        8       10 ar       
       5        8       11 ar       
       6       14       11 2        
       7       17       15 ar       
       8       10        9 ar       
       9       11       16 ar       
      10        2        4 1        
      11        2        1 1        
      12       15        5 ar       
      13        9        5 ar       
      14        9        6 ar       
      15       16        6 ar       
      16       16       12 1        
      17        4       12 1        
      18       12        3 2        
      19       18        1 1        
      20       19        1 1        
      21       20        1 1        
      22       21        2 1        
      23       22        2 1        
      24       23        5 1        
      25       24        6 1        
      26       25        7 1        
      27       26       13 1        
      28       27       15 1        
@<TRIPOS>SUBSTRUCTURE
 1 YZ9900 10 RESIDUE 4 A YZ9900 0 ROOT

