#        1GCZ_R01_S0001_C0000_L00005_S0001_C0007_G0010_E0001.mol2
#        Tue Jun  6 09:55:34 2017
#        Descriptor:     22     1    11     9    10    12
#        Energy - RMSD - RMSD MassCentre:     -69.2848    999.9999    999.9999
#        Receptor:       1  Surface Point:     1  Conformer:     0
#        Ligand:         5  Surface Point:     1  Conformer:     7
#        BUDE Formal Charge: 0
#        ATOM Count: 55
#        Heavy ATOM Count: 30
@<TRIPOS>MOLECULE
ZINC61464195_1GCZ_R01_S0001_C0000_L00005_S0001_C0007_G0010_E0001
 55 56 0 0 0
SMALL
USER_CHARGES
@<TRIPOS>ATOM
       1 C1        -0.8917    1.1392   -3.5457 C.3       1 <0>        -0.1456 
       2 C2        -0.1276   -0.0515   -2.9740 C.3       1 <0>        -0.0579 
       3 C3         1.2309   -0.1622   -3.6602 C.3       1 <0>        -0.1456 
       4 C4         0.0735    0.1460   -1.4906 C.ar      1 <0>        -0.0771 
       5 C5        -0.4761   -0.7967   -0.6138 C.ar      1 <0>        -0.0943 
       6 C6        -0.2249   -0.6995    0.7600 C.ar      1 <0>        -0.0923 
       7 C7         0.5781    0.3304    1.2643 C.ar      1 <0>        -0.1041 
       8 C8         1.0886    1.3076    0.4017 C.ar      1 <0>        -0.1315 
       9 C9         0.8047    1.2227   -0.9666 C.ar      1 <0>        -0.0969 
      10 S1         0.9383    0.3954    2.9961 S.3       1 <0>        -0.0341 
      11 C10        2.4583   -0.5468    3.3343 C.3       1 <0>        -0.1267 
      12 C11        2.7656   -0.4914    4.8116 C.2       1 <0>         0.4864 
      13 O1         2.4993   -1.4213    5.5134 O.2       1 <0>        -0.4815 
      14 O2         3.3414    0.6093    5.3400 O.3       1 <0>        -0.3231 
      15 C12        3.6135    0.6157    6.7439 C.3       1 <0>         0.0526 
      16 C13        2.3147    0.5173    7.5078 C.2       1 <0>         0.5250 
      17 O3         2.1311   -0.4135    8.2907 O.2       1 <0>        -0.5082 
      18 N1         1.3691    1.4363    7.3347 N.am      1 <0>        -0.5981 
      19 C14        0.1054    1.3391    8.0792 C.3       1 <0>         0.0731 
      20 C15        1.5885    2.5488    6.3992 C.3       1 <0>         0.1010 
      21 C16        1.0961    3.8334    7.0217 C.2       1 <0>         0.4997 
      22 O4         0.3188    4.5580    6.4023 O.2       1 <0>        -0.5061 
      23 N2         1.5032    4.1806    8.2394 N.am      1 <0>        -0.6702 
      24 C17        1.0417    5.3843    8.8227 C.ar      1 <0>         0.1553 
      25 C18        0.6514    5.4062   10.1669 C.ar      1 <0>        -0.1106 
      26 C19        0.2023    6.6011   10.7418 C.ar      1 <0>        -0.0959 
      27 C20        0.1347    7.7687    9.9768 C.ar      1 <0>        -0.1208 
      28 C21        0.5119    7.7449    8.6288 C.ar      1 <0>        -0.0919 
      29 C22        0.9687    6.5525    8.0546 C.ar      1 <0>        -0.0639 
      30 Cl1        1.4348    6.5177    6.3786 Cl        1 <0>        -0.0632 
      31 H1        -0.3166    2.0489   -3.3862 H         1 <0>         0.0596 
      32 H2        -1.0483    0.9906   -4.6122 H         1 <0>         0.0563 
      33 H3        -1.8542    1.2256   -3.0458 H         1 <0>         0.0575 
      34 H4        -0.6960   -0.9634   -3.1439 H         1 <0>         0.0784 
      35 H5         1.7696   -1.0188   -3.2606 H         1 <0>         0.0596 
      36 H6         1.8037    0.7446   -3.4777 H         1 <0>         0.0574 
      37 H7         1.0862   -0.2912   -4.7309 H         1 <0>         0.0563 
      38 H8        -1.0815   -1.6121   -0.9815 H         1 <0>         0.1285 
      39 H9        -0.6223   -1.4044    1.4752 H         1 <0>         0.1293 
      40 H10        1.6910    2.1068    0.8076 H         1 <0>         0.1227 
      41 H11        1.1765    2.0043   -1.6124 H         1 <0>         0.1262 
      42 H12        2.3185   -1.5826    3.0322 H         1 <0>         0.1329 
      43 H13        3.2858   -0.1140    2.7759 H         1 <0>         0.1329 
      44 H14        4.1217    1.5399    7.0112 H         1 <0>         0.1063 
      45 H15        4.2465   -0.2328    6.9952 H         1 <0>         0.1054 
      46 H16        0.3098    1.3838    9.1469 H         1 <0>         0.0686 
      47 H17       -0.5445    2.1654    7.7987 H         1 <0>         0.0794 
      48 H18       -0.3829    0.3961    7.8420 H         1 <0>         0.0778 
      49 H19        2.6512    2.6346    6.1815 H         1 <0>         0.1198 
      50 H20        1.0429    2.3593    5.4771 H         1 <0>         0.1233 
      51 H21        2.1415    3.5847    8.7471 H         1 <0>         0.4142 
      52 H22        0.7011    4.5072   10.7634 H         1 <0>         0.1473 
      53 H23       -0.0912    6.6177   11.7811 H         1 <0>         0.1337 
      54 H24       -0.2082    8.6912   10.4216 H         1 <0>         0.1349 
      55 H25        0.4540    8.6448    8.0344 H         1 <0>         0.1385 
@<TRIPOS>BOND
       1        1        2 1        
       2        1       31 1        
       3        1       32 1        
       4        1       33 1        
       5        2        3 1        
       6        2        4 1        
       7        2       34 1        
       8        3       35 1        
       9        3       36 1        
      10        3       37 1        
      11        4        9 ar       
      12        4        5 ar       
      13        5        6 ar       
      14        5       38 1        
      15        6        7 ar       
      16        6       39 1        
      17        7        8 ar       
      18        7       10 1        
      19        8        9 ar       
      20        8       40 1        
      21        9       41 1        
      22       10       11 1        
      23       11       12 1        
      24       11       42 1        
      25       11       43 1        
      26       12       13 2        
      27       12       14 1        
      28       14       15 1        
      29       15       16 1        
      30       15       44 1        
      31       15       45 1        
      32       16       17 2        
      33       16       18 am       
      34       18       19 1        
      35       18       20 1        
      36       19       46 1        
      37       19       47 1        
      38       19       48 1        
      39       20       21 1        
      40       20       49 1        
      41       20       50 1        
      42       21       22 2        
      43       21       23 am       
      44       23       24 1        
      45       23       51 1        
      46       24       29 ar       
      47       24       25 ar       
      48       25       26 ar       
      49       25       52 1        
      50       26       27 ar       
      51       26       53 1        
      52       27       28 ar       
      53       27       54 1        
      54       28       29 ar       
      55       28       55 1        
      56       29       30 1        

