#        scan_R01_S0062_C0000_L00001_S0001_C0002_G0010_E0001.mol2
#        Mon Jun 19 14:42:36 2017
#        Descriptor:     27    16    10     1     1     6
#        Energy - RMSD - RMSD MassCentre:     -33.0604    999.9999    999.9999
#        Receptor:       1  Surface Point:    62  Conformer:     0
#        Ligand:         1  Surface Point:     1  Conformer:     2
#        BUDE Formal Charge: 0
#        ATOM Count: 27
#        Heavy ATOM Count: 17
@<TRIPOS>MOLECULE
pdb1gcz_ligA.pdb_scan_R01_S0062_C0000_L00001_S0001_C0002_G0010_E0001
27 28 1 0 0
SMALL
GASTEIGER
@<TRIPOS>ATOM
       1 C3        -3.0794    5.6631    1.5661 C.3       1 YZ9900      0.0513 
       2 C11       -3.8961    4.4258    1.9277 C.3       1 YZ9900      0.2089 
       3 O1        -4.7467    2.0538    2.6773 O.2       1 YZ9900     -0.2447 
       4 O2        -3.0160    3.3834    2.3562 O.3       1 YZ9900     -0.4453 
       5 C6        -2.8398   -2.4179    4.3681 C.ar      1 YZ9900      0.0063 
       6 C5        -3.2079   -0.0856    3.5358 C.ar      1 YZ9900      0.0160 
       7 C4        -0.0861   -2.0021    4.4426 C.ar      1 YZ9900      0.0796 
       8 O3        -0.3815    0.2523    3.6428 O.2       1 YZ9900     -0.4208 
       9 C2        -2.3164   -1.1791    3.9829 C.ar      1 YZ9900      0.0353 
      10 C1        -0.9327   -0.9702    4.0203 C.ar      1 YZ9900      0.1519 
      11 C7        -1.2247    1.2783    3.2228 C.ar      1 YZ9900      0.3521 
      12 C12       -3.5619    2.2032    2.7195 C.2       1 YZ9900      0.3476 
      13 O4         0.2638   -4.2230    5.2351 O.3       1 YZ9900     -0.2865 
      14 O5        -0.7216    2.3408    2.8966 O.2       1 YZ9900     -0.2442 
      15 C10       -1.9887   -3.4464    4.7896 C.ar      1 YZ9900      0.0422 
      16 C9        -2.6922    1.0939    3.1703 C.ar      1 YZ9900      0.1515 
      17 C8        -0.6042   -3.2438    4.8293 C.ar      1 YZ9900      0.1988 
      18 H31       -2.3971    5.4218    0.7536 H         1 YZ9900      0.0000 
      19 H32       -3.7500    6.4605    1.2527 H         1 YZ9900      0.0000 
      20 H33       -2.5100    5.9875    2.4345 H         1 YZ9900      0.0000 
      21 H112      -4.4552    4.0920    1.0560 H         1 YZ9900      0.0000 
      22 H113      -4.5876    4.6691    2.7316 H         1 YZ9900      0.0000 
      23 H6        -3.9063   -2.5863    4.3418 H         1 YZ9900      0.0000 
      24 H5        -4.2740   -0.2568    3.5105 H         1 YZ9900      0.0000 
      25 H4         0.9808   -1.8362    4.4698 H         1 YZ9900      0.0000 
      26 HO4        1.1825   -3.9162    5.1832 H         1 YZ9900      0.0000 
      27 H10       -2.4182   -4.3933    5.0818 H         1 YZ9900      0.0000 
@<TRIPOS>BOND
       1       13       17 1        
       2        7       17 ar       
       3        7       10 ar       
       4        8       10 ar       
       5        8       11 ar       
       6       14       11 2        
       7       17       15 ar       
       8       10        9 ar       
       9       11       16 ar       
      10        2        4 1        
      11        2        1 1        
      12       15        5 ar       
      13        9        5 ar       
      14        9        6 ar       
      15       16        6 ar       
      16       16       12 1        
      17        4       12 1        
      18       12        3 2        
      19       18        1 1        
      20       19        1 1        
      21       20        1 1        
      22       21        2 1        
      23       22        2 1        
      24       23        5 1        
      25       24        6 1        
      26       25        7 1        
      27       26       13 1        
      28       27       15 1        
@<TRIPOS>SUBSTRUCTURE
 1 YZ9900 10 RESIDUE 4 A YZ9900 0 ROOT

