#        scan_R01_S0062_C0000_L00001_S0001_C0003_G0010_E0001.mol2
#        Mon Jun 19 14:14:26 2017
#        Descriptor:     30    34     2     1     1     7
#        Energy - RMSD - RMSD MassCentre:     -31.4437    999.9999    999.9999
#        Receptor:       1  Surface Point:    62  Conformer:     0
#        Ligand:         1  Surface Point:     1  Conformer:     3
#        BUDE Formal Charge: 0
#        ATOM Count: 27
#        Heavy ATOM Count: 17
@<TRIPOS>MOLECULE
pdb1gcz_ligA.pdb_scan_R01_S0062_C0000_L00001_S0001_C0003_G0010_E0001
27 28 1 0 0
SMALL
GASTEIGER
@<TRIPOS>ATOM
       1 C3        -6.4094   -1.0828    9.4444 C.3       1 YZ9900      0.0513 
       2 C11       -6.7592   -1.3082    7.9763 C.3       1 YZ9900      0.2089 
       3 O1        -4.8666    0.5089    7.8082 O.2       1 YZ9900     -0.2447 
       4 O2        -5.5579   -1.5033    7.2255 O.3       1 YZ9900     -0.4453 
       5 C6        -0.2641    1.1527    5.5961 C.ar      1 YZ9900      0.0063 
       6 C5        -2.4799    0.3205    6.4116 C.ar      1 YZ9900      0.0160 
       7 C4         0.1718   -1.2298    4.2193 C.ar      1 YZ9900      0.0796 
       8 O3        -1.9522   -2.0821    4.9750 O.2       1 YZ9900     -0.4208 
       9 C2        -1.2292    0.1410    5.6410 C.ar      1 YZ9900      0.0353 
      10 C1        -1.0102   -1.0562    4.9493 C.ar      1 YZ9900      0.1519 
      11 C7        -3.1279   -1.9083    5.7017 C.ar      1 YZ9900      0.3521 
      12 C12       -4.6524   -0.5020    7.2080 C.2       1 YZ9900      0.3476 
      13 O4         2.2817   -0.4368    3.4431 O.3       1 YZ9900     -0.2865 
      14 O5        -3.9397   -2.8190    5.7110 O.2       1 YZ9900     -0.2442 
      15 C10        0.9161    0.9739    4.8645 C.ar      1 YZ9900      0.0422 
      16 C9        -3.3937   -0.6566    6.4452 C.ar      1 YZ9900      0.1515 
      17 C8         1.1411   -0.2209    4.1706 C.ar      1 YZ9900      0.1988 
      18 H31       -5.7883   -0.1942    9.5363 H         1 YZ9900      0.0000 
      19 H32       -7.3240   -0.9478   10.0179 H         1 YZ9900      0.0000 
      20 H33       -5.8669   -1.9461    9.8239 H         1 YZ9900      0.0000 
      21 H112      -7.2894   -0.4396    7.5916 H         1 YZ9900      0.0000 
      22 H113      -7.3906   -2.1895    7.8844 H         1 YZ9900      0.0000 
      23 H6        -0.4262    2.0789    6.1273 H         1 YZ9900      0.0000 
      24 H5        -2.6394    1.2478    6.9418 H         1 YZ9900      0.0000 
      25 H4         0.3363   -2.1551    3.6872 H         1 YZ9900      0.0000 
      26 HO4        2.2774   -1.3213    3.0448 H         1 YZ9900      0.0000 
      27 H10        1.6451    1.7705    4.8460 H         1 YZ9900      0.0000 
@<TRIPOS>BOND
       1       13       17 1        
       2        7       17 ar       
       3        7       10 ar       
       4        8       10 ar       
       5        8       11 ar       
       6       14       11 2        
       7       17       15 ar       
       8       10        9 ar       
       9       11       16 ar       
      10        2        4 1        
      11        2        1 1        
      12       15        5 ar       
      13        9        5 ar       
      14        9        6 ar       
      15       16        6 ar       
      16       16       12 1        
      17        4       12 1        
      18       12        3 2        
      19       18        1 1        
      20       19        1 1        
      21       20        1 1        
      22       21        2 1        
      23       22        2 1        
      24       23        5 1        
      25       24        6 1        
      26       25        7 1        
      27       26       13 1        
      28       27       15 1        
@<TRIPOS>SUBSTRUCTURE
 1 YZ9900 10 RESIDUE 4 A YZ9900 0 ROOT

