#        scan_R01_S0063_C0000_L00001_S0001_C0000_G0010_E0001.mol2
#        Mon Jun 19 14:42:37 2017
#        Descriptor:     20     3    10     3     1     4
#        Energy - RMSD - RMSD MassCentre:     -40.3472    999.9999    999.9999
#        Receptor:       1  Surface Point:    63  Conformer:     0
#        Ligand:         1  Surface Point:     1  Conformer:     0
#        BUDE Formal Charge: 0
#        ATOM Count: 27
#        Heavy ATOM Count: 17
@<TRIPOS>MOLECULE
pdb1gcz_ligA.pdb_scan_R01_S0063_C0000_L00001_S0001_C0000_G0010_E0001
27 28 1 0 0
SMALL
GASTEIGER
@<TRIPOS>ATOM
       1 C3        -3.3078    0.9878    3.8780 C.3       1 YZ9900      0.0513 
       2 C11       -2.3855   -0.1902    4.0105 C.3       1 YZ9900      0.2089 
       3 O1        -2.1376   -0.4380    0.6071 O.2       1 YZ9900     -0.2447 
       4 O2        -2.4355   -0.9994    2.7681 O.3       1 YZ9900     -0.4453 
       5 C6         3.0665    0.1784    0.3134 C.ar      1 YZ9900      0.0063 
       6 C5         0.6643   -0.3610    0.8599 C.ar      1 YZ9900      0.0160 
       7 C4         3.9266   -1.9033    2.1994 C.ar      1 YZ9900      0.0796 
       8 O3         1.6019   -2.3361    2.6440 O.2       1 YZ9900     -0.4208 
       9 C2         2.1303   -0.5971    1.0381 C.ar      1 YZ9900      0.0353 
      10 C1         2.5682   -1.6055    1.9505 C.ar      1 YZ9900      0.1519 
      11 C7         0.3128   -2.0990    2.5577 C.ar      1 YZ9900      0.3521 
      12 C12       -1.6799   -0.8092    1.6449 C.2       1 YZ9900      0.3476 
      13 O4         6.1531   -1.2800    1.6022 O.3       1 YZ9900     -0.2865 
      14 O5        -0.4146   -2.7301    3.2145 O.2       1 YZ9900     -0.2442 
      15 C10        4.4511   -0.0810    0.5301 C.ar      1 YZ9900      0.0422 
      16 C9        -0.2019   -1.0600    1.6561 C.ar      1 YZ9900      0.1515 
      17 C8         4.8319   -1.0895    1.4441 C.ar      1 YZ9900      0.1988 
      18 H31       -3.0112    1.5872    3.0172 H         1 YZ9900      0.0000 
      19 H32       -4.3299    0.6350    3.7400 H         1 YZ9900      0.0000 
      20 H33       -3.2521    1.5960    4.7808 H         1 YZ9900      0.0000 
      21 H112      -2.6982   -0.8031    4.8560 H         1 YZ9900      0.0000 
      22 H113      -1.3670    0.1620    4.1740 H         1 YZ9900      0.0000 
      23 H6         2.7429    0.9403   -0.3801 H         1 YZ9900      0.0000 
      24 H5         0.2998    0.3407    0.1244 H         1 YZ9900      0.0000 
      25 H4         4.2501   -2.6680    2.8900 H         1 YZ9900      0.0000 
      26 HO4        6.5289   -0.5373    2.0805 H         1 YZ9900      0.0000 
      27 H10        5.2018    0.4875    0.0012 H         1 YZ9900      0.0000 
@<TRIPOS>BOND
       1       13       17 1        
       2        7       17 ar       
       3        7       10 ar       
       4        8       10 ar       
       5        8       11 ar       
       6       14       11 2        
       7       17       15 ar       
       8       10        9 ar       
       9       11       16 ar       
      10        2        4 1        
      11        2        1 1        
      12       15        5 ar       
      13        9        5 ar       
      14        9        6 ar       
      15       16        6 ar       
      16       16       12 1        
      17        4       12 1        
      18       12        3 2        
      19       18        1 1        
      20       19        1 1        
      21       20        1 1        
      22       21        2 1        
      23       22        2 1        
      24       23        5 1        
      25       24        6 1        
      26       25        7 1        
      27       26       13 1        
      28       27       15 1        
@<TRIPOS>SUBSTRUCTURE
 1 YZ9900 10 RESIDUE 4 A YZ9900 0 ROOT

