#        scan_R01_S0063_C0000_L00001_S0001_C0000_G0010_E0001.mol2
#        Mon Jun 19 14:14:27 2017
#        Descriptor:     22    22    27     3     2     4
#        Energy - RMSD - RMSD MassCentre:     -37.6233    999.9999    999.9999
#        Receptor:       1  Surface Point:    63  Conformer:     0
#        Ligand:         1  Surface Point:     1  Conformer:     0
#        BUDE Formal Charge: 0
#        ATOM Count: 27
#        Heavy ATOM Count: 17
@<TRIPOS>MOLECULE
pdb1gcz_ligA.pdb_scan_R01_S0063_C0000_L00001_S0001_C0000_G0010_E0001
27 28 1 0 0
SMALL
GASTEIGER
@<TRIPOS>ATOM
       1 C3         4.5685    1.4923   -1.3278 C.3       1 YZ9900      0.0513 
       2 C11        3.6423    0.3538   -1.0088 C.3       1 YZ9900      0.2089 
       3 O1         4.4123    0.5976    2.3159 O.2       1 YZ9900     -0.2447 
       4 O2         4.0538   -0.2749    0.2704 O.3       1 YZ9900     -0.4453 
       5 C6        -0.4680    1.5026    4.0226 C.ar      1 YZ9900      0.0063 
       6 C5         1.6617    0.7752    2.8844 C.ar      1 YZ9900      0.0160 
       7 C4        -1.8590   -0.7782    2.8006 C.ar      1 YZ9900      0.0796 
       8 O3         0.2273   -1.3821    1.7655 O.2       1 YZ9900     -0.4208 
       9 C2         0.2074    0.5885    3.1794 C.ar      1 YZ9900      0.0353 
      10 C1        -0.4863   -0.5153    2.5947 C.ar      1 YZ9900      0.1519 
      11 C7         1.4854   -1.1986    1.4352 C.ar      1 YZ9900      0.3521 
      12 C12        3.6658    0.1075    1.5242 C.2       1 YZ9900      0.3476 
      13 O4        -3.8054    0.0306    3.9230 O.3       1 YZ9900     -0.2865 
      14 O5         1.9823   -1.9502    0.6957 O.2       1 YZ9900     -0.2442 
      15 C10       -1.8559    1.2833    4.2609 C.ar      1 YZ9900      0.0422 
      16 C9         2.2495   -0.0699    1.9826 C.ar      1 YZ9900      0.1515 
      17 C8        -2.4957    0.1766    3.6582 C.ar      1 YZ9900      0.1988 
      18 H31        4.5434    2.2201   -0.5166 H         1 YZ9900      0.0000 
      19 H32        5.5838    1.1128   -1.4437 H         1 YZ9900      0.0000 
      20 H33        4.2512    1.9700   -2.2546 H         1 YZ9900      0.0000 
      21 H112       3.6873   -0.3860   -1.8081 H         1 YZ9900      0.0000 
      22 H113       2.6229    0.7290   -0.9178 H         1 YZ9900      0.0000 
      23 H6         0.0505    2.3374    4.4703 H         1 YZ9900      0.0000 
      24 H5         2.2314    1.5544    3.3687 H         1 YZ9900      0.0000 
      25 H4        -2.3766   -1.6154    2.3560 H         1 YZ9900      0.0000 
      26 HO4       -4.3021    0.7164    3.4708 H         1 YZ9900      0.0000 
      27 H10       -2.4133    1.9563    4.8957 H         1 YZ9900      0.0000 
@<TRIPOS>BOND
       1       13       17 1        
       2        7       17 ar       
       3        7       10 ar       
       4        8       10 ar       
       5        8       11 ar       
       6       14       11 2        
       7       17       15 ar       
       8       10        9 ar       
       9       11       16 ar       
      10        2        4 1        
      11        2        1 1        
      12       15        5 ar       
      13        9        5 ar       
      14        9        6 ar       
      15       16        6 ar       
      16       16       12 1        
      17        4       12 1        
      18       12        3 2        
      19       18        1 1        
      20       19        1 1        
      21       20        1 1        
      22       21        2 1        
      23       22        2 1        
      24       23        5 1        
      25       24        6 1        
      26       25        7 1        
      27       26       13 1        
      28       27       15 1        
@<TRIPOS>SUBSTRUCTURE
 1 YZ9900 10 RESIDUE 4 A YZ9900 0 ROOT

