#        scan_R01_S0063_C0000_L00001_S0001_C0002_G0010_E0001.mol2
#        Mon Jun 19 14:42:37 2017
#        Descriptor:     11     4    16     2     1     5
#        Energy - RMSD - RMSD MassCentre:     -39.2896    999.9999    999.9999
#        Receptor:       1  Surface Point:    63  Conformer:     0
#        Ligand:         1  Surface Point:     1  Conformer:     2
#        BUDE Formal Charge: 0
#        ATOM Count: 27
#        Heavy ATOM Count: 17
@<TRIPOS>MOLECULE
pdb1gcz_ligA.pdb_scan_R01_S0063_C0000_L00001_S0001_C0002_G0010_E0001
27 28 1 0 0
SMALL
GASTEIGER
@<TRIPOS>ATOM
       1 C3         5.4397   -2.0597   -1.8920 C.3       1 YZ9900      0.0513 
       2 C11        4.7198   -0.7890   -1.4497 C.3       1 YZ9900      0.2089 
       3 O1         3.1684    1.0093   -0.3222 O.2       1 YZ9900     -0.2447 
       4 O2         3.7373   -1.1173   -0.4639 O.3       1 YZ9900     -0.4453 
       5 C6        -0.5981    1.2676    3.1760 C.ar      1 YZ9900      0.0063 
       6 C5         1.2161    0.5740    1.5965 C.ar      1 YZ9900      0.0160 
       7 C4        -0.9508   -1.3712    3.9968 C.ar      1 YZ9900      0.0796 
       8 O3         0.7884   -2.0956    2.4936 O.2       1 YZ9900     -0.4208 
       9 C2         0.1932    0.2579    2.6182 C.ar      1 YZ9900      0.0353 
      10 C1         0.0160   -1.0682    3.0306 C.ar      1 YZ9900      0.1519 
      11 C7         1.7500   -1.7929    1.5323 C.ar      1 YZ9900      0.3521 
      12 C12        2.9948   -0.1132    0.0491 C.2       1 YZ9900      0.3476 
      13 O4        -2.6782   -0.7101    5.5007 O.3       1 YZ9900     -0.2865 
      14 O5         2.4156   -2.7073    1.0749 O.2       1 YZ9900     -0.2442 
      15 C10       -1.5634    0.9590    4.1420 C.ar      1 YZ9900      0.0422 
      16 C9         1.9653   -0.4029    1.0720 C.ar      1 YZ9900      0.1515 
      17 C8        -1.7454   -0.3649    4.5586 C.ar      1 YZ9900      0.1988 
      18 H31        4.7204   -2.7502   -2.3277 H         1 YZ9900      0.0000 
      19 H32        6.1962   -1.8081   -2.6323 H         1 YZ9900      0.0000 
      20 H33        5.9146   -2.5252   -1.0309 H         1 YZ9900      0.0000 
      21 H112       4.2326   -0.3300   -2.3075 H         1 YZ9900      0.0000 
      22 H113       5.4399   -0.0925   -1.0253 H         1 YZ9900      0.0000 
      23 H6        -0.4670    2.2928    2.8627 H         1 YZ9900      0.0000 
      24 H5         1.3451    1.6001    1.2850 H         1 YZ9900      0.0000 
      25 H4        -1.0837   -2.3957    4.3119 H         1 YZ9900      0.0000 
      26 HO4       -2.6789   -1.6679    5.6542 H         1 YZ9900      0.0000 
      27 H10       -2.1611    1.7571    4.5569 H         1 YZ9900      0.0000 
@<TRIPOS>BOND
       1       13       17 1        
       2        7       17 ar       
       3        7       10 ar       
       4        8       10 ar       
       5        8       11 ar       
       6       14       11 2        
       7       17       15 ar       
       8       10        9 ar       
       9       11       16 ar       
      10        2        4 1        
      11        2        1 1        
      12       15        5 ar       
      13        9        5 ar       
      14        9        6 ar       
      15       16        6 ar       
      16       16       12 1        
      17        4       12 1        
      18       12        3 2        
      19       18        1 1        
      20       19        1 1        
      21       20        1 1        
      22       21        2 1        
      23       22        2 1        
      24       23        5 1        
      25       24        6 1        
      26       25        7 1        
      27       26       13 1        
      28       27       15 1        
@<TRIPOS>SUBSTRUCTURE
 1 YZ9900 10 RESIDUE 4 A YZ9900 0 ROOT

