#        scan_R01_S0063_C0000_L00001_S0001_C0003_G0010_E0001.mol2
#        Mon Jun 19 14:42:38 2017
#        Descriptor:     12     3    16     2     1     5
#        Energy - RMSD - RMSD MassCentre:     -38.2008    999.9999    999.9999
#        Receptor:       1  Surface Point:    63  Conformer:     0
#        Ligand:         1  Surface Point:     1  Conformer:     3
#        BUDE Formal Charge: 0
#        ATOM Count: 27
#        Heavy ATOM Count: 17
@<TRIPOS>MOLECULE
pdb1gcz_ligA.pdb_scan_R01_S0063_C0000_L00001_S0001_C0003_G0010_E0001
27 28 1 0 0
SMALL
GASTEIGER
@<TRIPOS>ATOM
       1 C3         4.6112   -0.7923   -2.2645 C.3       1 YZ9900      0.0513 
       2 C11        5.1948   -1.1028   -0.8891 C.3       1 YZ9900      0.2089 
       3 O1         3.3638    0.6918   -0.3069 O.2       1 YZ9900     -0.2447 
       4 O2         4.1311   -1.3480    0.0347 O.3       1 YZ9900     -0.4453 
       5 C6        -0.8128    1.1807    2.6609 C.ar      1 YZ9900      0.0063 
       6 C5         1.2362    0.4092    1.4468 C.ar      1 YZ9900      0.0160 
       7 C4        -1.0298   -1.2814    3.9464 C.ar      1 YZ9900      0.0796 
       8 O3         0.9383   -2.0770    2.8049 O.2       1 YZ9900     -0.4208 
       9 C2         0.1271    0.1781    2.3991 C.ar      1 YZ9900      0.0353 
      10 C1         0.0180   -1.0591    3.0449 C.ar      1 YZ9900      0.1519 
      11 C7         1.9804   -1.8546    1.9078 C.ar      1 YZ9900      0.3521 
      12 C12        3.2455   -0.3540    0.2591 C.2       1 YZ9900      0.3476 
      13 O4        -2.9808   -0.5463    5.1022 O.3       1 YZ9900     -0.2865 
      14 O5         2.7753   -2.7592    1.7120 O.2       1 YZ9900     -0.2442 
      15 C10       -1.8587    0.9530    3.5633 C.ar      1 YZ9900      0.0422 
      16 C9         2.1275   -0.5597    1.2066 C.ar      1 YZ9900      0.1515 
      17 C8        -1.9732   -0.2820    4.2124 C.ar      1 YZ9900      0.1988 
      18 H31        3.9878    0.0972   -2.2008 H         1 YZ9900      0.0000 
      19 H32        5.4207   -0.6190   -2.9705 H         1 YZ9900      0.0000 
      20 H33        4.0098   -1.6342   -2.6010 H         1 YZ9900      0.0000 
      21 H112       5.7849   -0.2560   -0.5452 H         1 YZ9900      0.0000 
      22 H113       5.8284   -1.9848   -0.9540 H         1 YZ9900      0.0000 
      23 H6        -0.7350    2.1376    2.1664 H         1 YZ9900      0.0000 
      24 H5         1.3116    1.3671    0.9536 H         1 YZ9900      0.0000 
      25 H4        -1.1098   -2.2376    4.4423 H         1 YZ9900      0.0000 
      26 HO4       -2.9160   -1.4529    5.4412 H         1 YZ9900      0.0000 
      27 H10       -2.5710    1.7435    3.7478 H         1 YZ9900      0.0000 
@<TRIPOS>BOND
       1       13       17 1        
       2        7       17 ar       
       3        7       10 ar       
       4        8       10 ar       
       5        8       11 ar       
       6       14       11 2        
       7       17       15 ar       
       8       10        9 ar       
       9       11       16 ar       
      10        2        4 1        
      11        2        1 1        
      12       15        5 ar       
      13        9        5 ar       
      14        9        6 ar       
      15       16        6 ar       
      16       16       12 1        
      17        4       12 1        
      18       12        3 2        
      19       18        1 1        
      20       19        1 1        
      21       20        1 1        
      22       21        2 1        
      23       22        2 1        
      24       23        5 1        
      25       24        6 1        
      26       25        7 1        
      27       26       13 1        
      28       27       15 1        
@<TRIPOS>SUBSTRUCTURE
 1 YZ9900 10 RESIDUE 4 A YZ9900 0 ROOT

