#        1GCZ_R01_S0001_C0000_L00005_S0001_C0007_G0010_E0001.mol2
#        Tue Jun  6 14:05:47 2017
#        Descriptor:     21    36     9     8    11    12
#        Energy - RMSD - RMSD MassCentre:     -66.6911    999.9999    999.9999
#        Receptor:       1  Surface Point:     1  Conformer:     0
#        Ligand:         5  Surface Point:     1  Conformer:     7
#        BUDE Formal Charge: 0
#        ATOM Count: 55
#        Heavy ATOM Count: 30
@<TRIPOS>MOLECULE
ZINC61464195_1GCZ_R01_S0001_C0000_L00005_S0001_C0007_G0010_E0001
 55 56 0 0 0
SMALL
USER_CHARGES
@<TRIPOS>ATOM
       1 C1        -0.7550    1.5303   -3.6503 C.3       1 <0>        -0.1456 
       2 C2        -0.5883    0.2703   -2.8058 C.3       1 <0>        -0.0579 
       3 C3         0.7317   -0.4089   -3.1590 C.3       1 <0>        -0.1456 
       4 C4        -0.5859    0.6429   -1.3426 C.ar      1 <0>        -0.0771 
       5 C5        -1.5831    0.1079   -0.5185 C.ar      1 <0>        -0.0943 
       6 C6        -1.5526    0.3518    0.8597 C.ar      1 <0>        -0.0923 
       7 C7        -0.5279    1.1220    1.4224 C.ar      1 <0>        -0.1041 
       8 C8         0.4436    1.7045    0.6000 C.ar      1 <0>        -0.1315 
       9 C9         0.3867    1.4840   -0.7813 C.ar      1 <0>        -0.0969 
      10 S1        -0.4707    1.3615    3.1753 S.3       1 <0>        -0.0341 
      11 C10        0.5183    0.0364    3.9356 C.3       1 <0>        -0.1267 
      12 C11        0.5672    0.2407    5.4309 C.2       1 <0>         0.4864 
      13 O1        -0.1361   -0.4083    6.1467 O.2       1 <0>        -0.4815 
      14 O2         1.4057    1.1571    5.9595 O.3       1 <0>        -0.3231 
      15 C12        1.4169    1.3151    7.3807 C.3       1 <0>         0.0526 
      16 C13        0.0618    1.7942    7.8436 C.2       1 <0>         0.5250 
      17 O3        -0.5799    1.1306    8.6565 O.2       1 <0>        -0.5082 
      18 N1        -0.4383    2.9331    7.3731 N.am      1 <0>        -0.5981 
      19 C14       -1.7576    3.3981    7.8248 C.3       1 <0>         0.0731 
      20 C15        0.3287    3.7263    6.4017 C.3       1 <0>         0.1010 
      21 C16        0.2407    5.1890    6.7661 C.2       1 <0>         0.4997 
      22 O4        -0.1001    6.0138    5.9198 O.2       1 <0>        -0.5061 
      23 N2         0.5318    5.5846    8.0022 N.am      1 <0>        -0.6702 
      24 C17        0.4492    6.9553    8.3437 C.ar      1 <0>         0.1553 
      25 C18       -0.1298    7.3404    9.5586 C.ar      1 <0>        -0.1106 
      26 C19       -0.2028    8.6973    9.8956 C.ar      1 <0>        -0.0959 
      27 C20        0.2926    9.6678    9.0203 C.ar      1 <0>        -0.1208 
      28 C21        0.8596    9.2846    7.7990 C.ar      1 <0>        -0.0919 
      29 C22        0.9404    7.9276    7.4642 C.ar      1 <0>        -0.0639 
      30 Cl1        1.6408    7.4473    5.9456 Cl        1 <0>        -0.0632 
      31 H1         0.0762    2.2061   -3.4603 H         1 <0>         0.0596 
      32 H2        -0.7702    1.2603   -4.7042 H         1 <0>         0.0563 
      33 H3        -1.6898    2.0212   -3.3876 H         1 <0>         0.0575 
      34 H4        -1.4125   -0.4117   -3.0043 H         1 <0>         0.0784 
      35 H5         0.8436   -1.3137   -2.5653 H         1 <0>         0.0596 
      36 H6         1.5558    0.2690   -2.9469 H         1 <0>         0.0574 
      37 H7         0.7353   -0.6654   -4.2164 H         1 <0>         0.0563 
      38 H8        -2.3718   -0.5066   -0.9267 H         1 <0>         0.1285 
      39 H9        -2.2960   -0.0425    1.5367 H         1 <0>         0.1293 
      40 H10        1.2173    2.3117    1.0462 H         1 <0>         0.1227 
      41 H11        1.1229    1.9699   -1.4045 H         1 <0>         0.1262 
      42 H12        0.0639   -0.9276    3.7166 H         1 <0>         0.1329 
      43 H13        1.5291    0.0612    3.5337 H         1 <0>         0.1329 
      44 H14        2.1737    2.0457    7.6590 H         1 <0>         0.1063 
      45 H15        1.6433    0.3604    7.8507 H         1 <0>         0.1054 
      46 H16       -1.7368    3.5560    8.9011 H         1 <0>         0.0686 
      47 H17       -2.0026    4.3329    7.3251 H         1 <0>         0.0794 
      48 H18       -2.5082    2.6487    7.5821 H         1 <0>         0.0778 
      49 H19        1.3696    3.4099    6.4175 H         1 <0>         0.1198 
      50 H20       -0.0822    3.5746    5.4057 H         1 <0>         0.1233 
      51 H21        0.8115    4.9064    8.6965 H         1 <0>         0.4142 
      52 H22       -0.5146    6.5953   10.2392 H         1 <0>         0.1473 
      53 H23       -0.6431    8.9920   10.8368 H         1 <0>         0.1337 
      54 H24        0.2396   10.7142    9.2823 H         1 <0>         0.1349 
      55 H25        1.2369   10.0337    7.1186 H         1 <0>         0.1385 
@<TRIPOS>BOND
       1        1        2 1        
       2        1       31 1        
       3        1       32 1        
       4        1       33 1        
       5        2        3 1        
       6        2        4 1        
       7        2       34 1        
       8        3       35 1        
       9        3       36 1        
      10        3       37 1        
      11        4        9 ar       
      12        4        5 ar       
      13        5        6 ar       
      14        5       38 1        
      15        6        7 ar       
      16        6       39 1        
      17        7        8 ar       
      18        7       10 1        
      19        8        9 ar       
      20        8       40 1        
      21        9       41 1        
      22       10       11 1        
      23       11       12 1        
      24       11       42 1        
      25       11       43 1        
      26       12       13 2        
      27       12       14 1        
      28       14       15 1        
      29       15       16 1        
      30       15       44 1        
      31       15       45 1        
      32       16       17 2        
      33       16       18 am       
      34       18       19 1        
      35       18       20 1        
      36       19       46 1        
      37       19       47 1        
      38       19       48 1        
      39       20       21 1        
      40       20       49 1        
      41       20       50 1        
      42       21       22 2        
      43       21       23 am       
      44       23       24 1        
      45       23       51 1        
      46       24       29 ar       
      47       24       25 ar       
      48       25       26 ar       
      49       25       52 1        
      50       26       27 ar       
      51       26       53 1        
      52       27       28 ar       
      53       27       54 1        
      54       28       29 ar       
      55       28       55 1        
      56       29       30 1        

