#        scan_R01_S0064_C0000_L00001_S0001_C0000_G0010_E0001.mol2
#        Mon Jun 19 14:42:39 2017
#        Descriptor:     34     6    33     1     3     5
#        Energy - RMSD - RMSD MassCentre:     -25.1979    999.9999    999.9999
#        Receptor:       1  Surface Point:    64  Conformer:     0
#        Ligand:         1  Surface Point:     1  Conformer:     0
#        BUDE Formal Charge: 0
#        ATOM Count: 27
#        Heavy ATOM Count: 17
@<TRIPOS>MOLECULE
pdb1gcz_ligA.pdb_scan_R01_S0064_C0000_L00001_S0001_C0000_G0010_E0001
27 28 1 0 0
SMALL
GASTEIGER
@<TRIPOS>ATOM
       1 C3        -2.8810   -1.5643    6.9902 C.3       1 YZ9900      0.0513 
       2 C11       -2.5425   -1.7124    5.5344 C.3       1 YZ9900      0.2089 
       3 O1        -3.9228    1.3435    4.8547 O.2       1 YZ9900     -0.2447 
       4 O2        -3.4438   -0.8538    4.7274 O.3       1 YZ9900     -0.4453 
       5 C6         0.4018    3.5534    2.8640 C.ar      1 YZ9900      0.0063 
       6 C5        -1.5160    2.0916    3.6024 C.ar      1 YZ9900      0.0160 
       7 C4         1.0973    1.5528    0.8283 C.ar      1 YZ9900      0.0796 
       8 O3        -0.7601    0.2396    1.6121 O.2       1 YZ9900     -0.4208 
       9 C2        -0.3458    2.3616    2.7111 C.ar      1 YZ9900      0.0353 
      10 C1         0.0077    1.4007    1.7146 C.ar      1 YZ9900      0.1519 
      11 C7        -1.7468   -0.0522    2.4287 C.ar      1 YZ9900      0.3521 
      12 C12       -3.2470    0.4628    4.4167 C.2       1 YZ9900      0.3476 
      13 O4         2.8841    3.0247    0.2423 O.3       1 YZ9900     -0.2865 
      14 O5        -2.2981   -1.0704    2.2944 O.2       1 YZ9900     -0.2442 
      15 C10        1.5137    3.7545    1.9953 C.ar      1 YZ9900      0.0422 
      16 C9        -2.1457    0.8818    3.4897 C.ar      1 YZ9900      0.1515 
      17 C8         1.8218    2.7728    1.0263 C.ar      1 YZ9900      0.1988 
      18 H31       -2.7795   -0.5192    7.2829 H         1 YZ9900      0.0000 
      19 H32       -3.9071   -1.8908    7.1594 H         1 YZ9900      0.0000 
      20 H33       -2.2024   -2.1758    7.5849 H         1 YZ9900      0.0000 
      21 H112      -2.6690   -2.7532    5.2361 H         1 YZ9900      0.0000 
      22 H113      -1.5084   -1.4101    5.3690 H         1 YZ9900      0.0000 
      23 H6         0.1388    4.2855    3.6131 H         1 YZ9900      0.0000 
      24 H5        -1.8542    2.8299    4.3144 H         1 YZ9900      0.0000 
      25 H4         1.3580    0.8225    0.0766 H         1 YZ9900      0.0000 
      26 HO4        3.6897    2.9408    0.7574 H         1 YZ9900      0.0000 
      27 H10        2.1149    4.6480    2.0768 H         1 YZ9900      0.0000 
@<TRIPOS>BOND
       1       13       17 1        
       2        7       17 ar       
       3        7       10 ar       
       4        8       10 ar       
       5        8       11 ar       
       6       14       11 2        
       7       17       15 ar       
       8       10        9 ar       
       9       11       16 ar       
      10        2        4 1        
      11        2        1 1        
      12       15        5 ar       
      13        9        5 ar       
      14        9        6 ar       
      15       16        6 ar       
      16       16       12 1        
      17        4       12 1        
      18       12        3 2        
      19       18        1 1        
      20       19        1 1        
      21       20        1 1        
      22       21        2 1        
      23       22        2 1        
      24       23        5 1        
      25       24        6 1        
      26       25        7 1        
      27       26       13 1        
      28       27       15 1        
@<TRIPOS>SUBSTRUCTURE
 1 YZ9900 10 RESIDUE 4 A YZ9900 0 ROOT

