#        scan_R01_S0064_C0000_L00001_S0001_C0000_G0010_E0001.mol2
#        Mon Jun 19 14:14:29 2017
#        Descriptor:     35    18    20     2     3     5
#        Energy - RMSD - RMSD MassCentre:     -22.6335    999.9999    999.9999
#        Receptor:       1  Surface Point:    64  Conformer:     0
#        Ligand:         1  Surface Point:     1  Conformer:     0
#        BUDE Formal Charge: 0
#        ATOM Count: 27
#        Heavy ATOM Count: 17
@<TRIPOS>MOLECULE
pdb1gcz_ligA.pdb_scan_R01_S0064_C0000_L00001_S0001_C0000_G0010_E0001
27 28 1 0 0
SMALL
GASTEIGER
@<TRIPOS>ATOM
       1 C3         1.8831    5.4226    1.2884 C.3       1 YZ9900      0.0513 
       2 C11        0.9468    4.8456    2.3113 C.3       1 YZ9900      0.2089 
       3 O1        -0.3468    2.6975   -0.0164 O.2       1 YZ9900     -0.2447 
       4 O2        -0.2180    4.2338    1.6259 O.3       1 YZ9900     -0.4453 
       5 C6         0.8416   -1.7483    2.5078 C.ar      1 YZ9900      0.0063 
       6 C5         0.1865    0.5620    1.7374 C.ar      1 YZ9900      0.0160 
       7 C4        -0.3856   -1.1882    5.1174 C.ar      1 YZ9900      0.0796 
       8 O3        -0.9632    0.9915    4.2784 O.2       1 YZ9900     -0.4208 
       9 C2         0.2213   -0.5065    2.7833 C.ar      1 YZ9900      0.0353 
      10 C1        -0.3708   -0.2530    4.0586 C.ar      1 YZ9900      0.1519 
      11 C7        -0.9436    1.9694    3.4015 C.ar      1 YZ9900      0.3521 
      12 C12       -0.2987    2.9556    1.1477 C.2       1 YZ9900      0.3476 
      13 O4         0.3081   -3.3919    5.7216 O.3       1 YZ9900     -0.2865 
      14 O5        -1.4222    2.9907    3.6956 O.2       1 YZ9900     -0.2442 
      15 C10        0.8559   -2.7264    3.5443 C.ar      1 YZ9900      0.0422 
      16 C9        -0.3298    1.7821    2.0803 C.ar      1 YZ9900      0.1515 
      17 C8         0.2566   -2.4258    4.7884 C.ar      1 YZ9900      0.1988 
      18 H31        2.2080    4.6357    0.6075 H         1 YZ9900      0.0000 
      19 H32        1.3696    6.2014    0.7245 H         1 YZ9900      0.0000 
      20 H33        2.7510    5.8499    1.7905 H         1 YZ9900      0.0000 
      21 H112       0.6022    5.6378    2.9760 H         1 YZ9900      0.0000 
      22 H113       1.4676    4.0845    2.8923 H         1 YZ9900      0.0000 
      23 H6         1.2887   -1.9479    1.5453 H         1 YZ9900      0.0000 
      24 H5         0.5579    0.3761    0.7405 H         1 YZ9900      0.0000 
      25 H4        -0.8361   -0.9899    6.0787 H         1 YZ9900      0.0000 
      26 HO4        1.2088   -3.4808    6.0415 H         1 YZ9900      0.0000 
      27 H10        1.3202   -3.6878    3.3806 H         1 YZ9900      0.0000 
@<TRIPOS>BOND
       1       13       17 1        
       2        7       17 ar       
       3        7       10 ar       
       4        8       10 ar       
       5        8       11 ar       
       6       14       11 2        
       7       17       15 ar       
       8       10        9 ar       
       9       11       16 ar       
      10        2        4 1        
      11        2        1 1        
      12       15        5 ar       
      13        9        5 ar       
      14        9        6 ar       
      15       16        6 ar       
      16       16       12 1        
      17        4       12 1        
      18       12        3 2        
      19       18        1 1        
      20       19        1 1        
      21       20        1 1        
      22       21        2 1        
      23       22        2 1        
      24       23        5 1        
      25       24        6 1        
      26       25        7 1        
      27       26       13 1        
      28       27       15 1        
@<TRIPOS>SUBSTRUCTURE
 1 YZ9900 10 RESIDUE 4 A YZ9900 0 ROOT

