#        scan_R01_S0064_C0000_L00001_S0001_C0002_G0010_E0001.mol2
#        Mon Jun 19 14:42:39 2017
#        Descriptor:     18     2    23     1     3     6
#        Energy - RMSD - RMSD MassCentre:     -22.6742    999.9999    999.9999
#        Receptor:       1  Surface Point:    64  Conformer:     0
#        Ligand:         1  Surface Point:     1  Conformer:     2
#        BUDE Formal Charge: 0
#        ATOM Count: 27
#        Heavy ATOM Count: 17
@<TRIPOS>MOLECULE
pdb1gcz_ligA.pdb_scan_R01_S0064_C0000_L00001_S0001_C0002_G0010_E0001
27 28 1 0 0
SMALL
GASTEIGER
@<TRIPOS>ATOM
       1 C3         3.1746    6.1006    0.6532 C.3       1 YZ9900      0.0513 
       2 C11        2.2866    4.9980    0.0839 C.3       1 YZ9900      0.2089 
       3 O1         0.6486    2.9775   -0.2993 O.2       1 YZ9900     -0.2447 
       4 O2         1.6799    4.2739    1.1574 O.3       1 YZ9900     -0.4453 
       5 C6        -2.1226   -0.3727    2.4552 C.ar      1 YZ9900      0.0063 
       6 C5        -0.6207    1.4565    1.6390 C.ar      1 YZ9900      0.0160 
       7 C4        -1.6005    0.3218    5.1022 C.ar      1 YZ9900      0.0796 
       8 O3        -0.1433    2.0978    4.3731 O.2       1 YZ9900     -0.4208 
       9 C2        -1.2601    0.6929    2.7338 C.ar      1 YZ9900      0.0353 
      10 C1        -0.9976    1.0418    4.0639 C.ar      1 YZ9900      0.1519 
      11 C7         0.4559    2.8135    3.3392 C.ar      1 YZ9900      0.3521 
      12 C12        0.8539    3.2526    0.8453 C.2       1 YZ9900      0.3476 
      13 O4        -3.0307   -1.4201    5.8787 O.3       1 YZ9900     -0.2865 
      14 O5         1.2007    3.7345    3.6318 O.2       1 YZ9900     -0.2442 
      15 C10       -2.7228   -1.0894    3.4974 C.ar      1 YZ9900      0.0422 
      16 C9         0.2022    2.4733    1.9214 C.ar      1 YZ9900      0.1515 
      17 C8        -2.4645   -0.7454    4.8295 C.ar      1 YZ9900      0.1988 
      18 H31        3.9570    5.6558    1.2647 H         1 YZ9900      0.0000 
      19 H32        3.6258    6.6599   -0.1637 H         1 YZ9900      0.0000 
      20 H33        2.5732    6.7708    1.2638 H         1 YZ9900      0.0000 
      21 H112       2.8895    4.3190   -0.5155 H         1 YZ9900      0.0000 
      22 H113       1.5113    5.4406   -0.5379 H         1 YZ9900      0.0000 
      23 H6        -2.3297   -0.6476    1.4315 H         1 YZ9900      0.0000 
      24 H5        -0.8296    1.1794    0.6163 H         1 YZ9900      0.0000 
      25 H4        -1.3951    0.5948    6.1268 H         1 YZ9900      0.0000 
      26 HO4       -2.7284   -1.0598    6.7271 H         1 YZ9900      0.0000 
      27 H10       -3.3847   -1.9077    3.2553 H         1 YZ9900      0.0000 
@<TRIPOS>BOND
       1       13       17 1        
       2        7       17 ar       
       3        7       10 ar       
       4        8       10 ar       
       5        8       11 ar       
       6       14       11 2        
       7       17       15 ar       
       8       10        9 ar       
       9       11       16 ar       
      10        2        4 1        
      11        2        1 1        
      12       15        5 ar       
      13        9        5 ar       
      14        9        6 ar       
      15       16        6 ar       
      16       16       12 1        
      17        4       12 1        
      18       12        3 2        
      19       18        1 1        
      20       19        1 1        
      21       20        1 1        
      22       21        2 1        
      23       22        2 1        
      24       23        5 1        
      25       24        6 1        
      26       25        7 1        
      27       26       13 1        
      28       27       15 1        
@<TRIPOS>SUBSTRUCTURE
 1 YZ9900 10 RESIDUE 4 A YZ9900 0 ROOT

