#        scan_R01_S0064_C0000_L00001_S0001_C0002_G0010_E0001.mol2
#        Mon Jun 19 14:14:29 2017
#        Descriptor:     34    15     6     2     3     6
#        Energy - RMSD - RMSD MassCentre:     -23.5887    999.9999    999.9999
#        Receptor:       1  Surface Point:    64  Conformer:     0
#        Ligand:         1  Surface Point:     1  Conformer:     2
#        BUDE Formal Charge: 0
#        ATOM Count: 27
#        Heavy ATOM Count: 17
@<TRIPOS>MOLECULE
pdb1gcz_ligA.pdb_scan_R01_S0064_C0000_L00001_S0001_C0002_G0010_E0001
27 28 1 0 0
SMALL
GASTEIGER
@<TRIPOS>ATOM
       1 C3         2.6455    6.3432   -0.3700 C.3       1 YZ9900      0.0513 
       2 C11        1.6334    5.2336   -0.6401 C.3       1 YZ9900      0.2089 
       3 O1         0.0003    3.1771   -0.5137 O.2       1 YZ9900     -0.2447 
       4 O2         1.4547    4.4537    0.5452 O.3       1 YZ9900     -0.4453 
       5 C6        -1.5695   -0.3527    2.8874 C.ar      1 YZ9900      0.0063 
       6 C5        -0.4815    1.5502    1.6780 C.ar      1 YZ9900      0.0160 
       7 C4        -0.1637    0.2652    5.2119 C.ar      1 YZ9900      0.0796 
       8 O3         0.9140    2.1106    4.0973 O.2       1 YZ9900     -0.4208 
       9 C2        -0.6826    0.7291    2.8928 C.ar      1 YZ9900      0.0353 
      10 C1         0.0239    1.0397    4.0608 C.ar      1 YZ9900      0.1519 
      11 C7         1.0998    2.8804    2.9513 C.ar      1 YZ9900      0.3521 
      12 C12        0.5894    3.4185    0.4976 C.2       1 YZ9900      0.3476 
      13 O4        -1.2000   -1.5469    6.3630 O.3       1 YZ9900     -0.2865 
      14 O5         1.8838    3.8137    3.0047 O.2       1 YZ9900     -0.2442 
      15 C10       -1.7532   -1.1238    4.0414 C.ar      1 YZ9900      0.0422 
      16 C9         0.3705    2.5820    1.6986 C.ar      1 YZ9900      0.1515 
      17 C8        -1.0498   -0.8185    5.2125 C.ar      1 YZ9900      0.1988 
      18 H31        3.6003    5.9021   -0.0910 H         1 YZ9900      0.0000 
      19 H32        2.7715    6.9445   -1.2678 H         1 YZ9900      0.0000 
      20 H33        2.2851    6.9724    0.4411 H         1 YZ9900      0.0000 
      21 H112       1.9992    4.5952   -1.4416 H         1 YZ9900      0.0000 
      22 H113       0.6816    5.6730   -0.9312 H         1 YZ9900      0.0000 
      23 H6        -2.1179   -0.5982    1.9900 H         1 YZ9900      0.0000 
      24 H5        -1.0312    1.3025    0.7819 H         1 YZ9900      0.0000 
      25 H4         0.3836    0.5087    6.1107 H         1 YZ9900      0.0000 
      26 HO4       -0.6254   -1.2071    7.0668 H         1 YZ9900      0.0000 
      27 H10       -2.4438   -1.9536    4.0108 H         1 YZ9900      0.0000 
@<TRIPOS>BOND
       1       13       17 1        
       2        7       17 ar       
       3        7       10 ar       
       4        8       10 ar       
       5        8       11 ar       
       6       14       11 2        
       7       17       15 ar       
       8       10        9 ar       
       9       11       16 ar       
      10        2        4 1        
      11        2        1 1        
      12       15        5 ar       
      13        9        5 ar       
      14        9        6 ar       
      15       16        6 ar       
      16       16       12 1        
      17        4       12 1        
      18       12        3 2        
      19       18        1 1        
      20       19        1 1        
      21       20        1 1        
      22       21        2 1        
      23       22        2 1        
      24       23        5 1        
      25       24        6 1        
      26       25        7 1        
      27       26       13 1        
      28       27       15 1        
@<TRIPOS>SUBSTRUCTURE
 1 YZ9900 10 RESIDUE 4 A YZ9900 0 ROOT

