#        scan_R01_S0064_C0000_L00001_S0001_C0003_G0010_E0001.mol2
#        Mon Jun 19 14:42:40 2017
#        Descriptor:     22    10     2     1     3     7
#        Energy - RMSD - RMSD MassCentre:     -23.6338    999.9999    999.9999
#        Receptor:       1  Surface Point:    64  Conformer:     0
#        Ligand:         1  Surface Point:     1  Conformer:     3
#        BUDE Formal Charge: 0
#        ATOM Count: 27
#        Heavy ATOM Count: 17
@<TRIPOS>MOLECULE
pdb1gcz_ligA.pdb_scan_R01_S0064_C0000_L00001_S0001_C0003_G0010_E0001
27 28 1 0 0
SMALL
GASTEIGER
@<TRIPOS>ATOM
       1 C3         0.3337    4.3576   -0.9974 C.3       1 YZ9900      0.0513 
       2 C11        0.9909    2.9885   -0.8484 C.3       1 YZ9900      0.2089 
       3 O1         1.1869    3.9505    1.5905 O.2       1 YZ9900     -0.2447 
       4 O2         0.4502    2.3232    0.2962 O.3       1 YZ9900     -0.4453 
       5 C6        -0.1983    2.7179    6.3918 C.ar      1 YZ9900      0.0063 
       6 C5         0.2110    2.8172    3.9240 C.ar      1 YZ9900      0.0160 
       7 C4        -1.5348    0.2891    6.1154 C.ar      1 YZ9900      0.0796 
       8 O3        -1.1694    0.3327    3.7334 O.2       1 YZ9900     -0.4208 
       9 C2        -0.3403    2.1467    5.1227 C.ar      1 YZ9900      0.0353 
      10 C1        -1.0119    0.9263    4.9837 C.ar      1 YZ9900      0.1519 
      11 C7        -0.6487    0.9676    2.6082 C.ar      1 YZ9900      0.3521 
      12 C12        0.6090    2.9083    1.5025 C.2       1 YZ9900      0.3476 
      13 O4        -1.9242    0.1951    8.4653 O.3       1 YZ9900     -0.2865 
      14 O5        -0.7976    0.4307    1.5228 O.2       1 YZ9900     -0.2442 
      15 C10       -0.7232    2.0764    7.5201 C.ar      1 YZ9900      0.0422 
      16 C9         0.0671    2.2584    2.7166 C.ar      1 YZ9900      0.1515 
      17 C8        -1.3958    0.8558    7.3878 C.ar      1 YZ9900      0.1988 
      18 H31        0.5392    4.9561   -0.1122 H         1 YZ9900      0.0000 
      19 H32        0.7353    4.8583   -1.8758 H         1 YZ9900      0.0000 
      20 H33       -0.7412    4.2329   -1.1101 H         1 YZ9900      0.0000 
      21 H112       2.0642    3.1126   -0.7214 H         1 YZ9900      0.0000 
      22 H113       0.7966    2.3935   -1.7382 H         1 YZ9900      0.0000 
      23 H6         0.3185    3.6592    6.5067 H         1 YZ9900      0.0000 
      24 H5         0.7274    3.7584    4.0417 H         1 YZ9900      0.0000 
      25 H4        -2.0521   -0.6524    6.0031 H         1 YZ9900      0.0000 
      26 HO4       -2.3680   -0.6218    8.1884 H         1 YZ9900      0.0000 
      27 H10       -0.5999    2.5384    8.4884 H         1 YZ9900      0.0000 
@<TRIPOS>BOND
       1       13       17 1        
       2        7       17 ar       
       3        7       10 ar       
       4        8       10 ar       
       5        8       11 ar       
       6       14       11 2        
       7       17       15 ar       
       8       10        9 ar       
       9       11       16 ar       
      10        2        4 1        
      11        2        1 1        
      12       15        5 ar       
      13        9        5 ar       
      14        9        6 ar       
      15       16        6 ar       
      16       16       12 1        
      17        4       12 1        
      18       12        3 2        
      19       18        1 1        
      20       19        1 1        
      21       20        1 1        
      22       21        2 1        
      23       22        2 1        
      24       23        5 1        
      25       24        6 1        
      26       25        7 1        
      27       26       13 1        
      28       27       15 1        
@<TRIPOS>SUBSTRUCTURE
 1 YZ9900 10 RESIDUE 4 A YZ9900 0 ROOT

