#        scan_R01_S0064_C0000_L00001_S0001_C0003_G0010_E0001.mol2
#        Mon Jun 19 14:14:30 2017
#        Descriptor:     35     4    24     1     3     5
#        Energy - RMSD - RMSD MassCentre:     -25.6288    999.9999    999.9999
#        Receptor:       1  Surface Point:    64  Conformer:     0
#        Ligand:         1  Surface Point:     1  Conformer:     3
#        BUDE Formal Charge: 0
#        ATOM Count: 27
#        Heavy ATOM Count: 17
@<TRIPOS>MOLECULE
pdb1gcz_ligA.pdb_scan_R01_S0064_C0000_L00001_S0001_C0003_G0010_E0001
27 28 1 0 0
SMALL
GASTEIGER
@<TRIPOS>ATOM
       1 C3         1.7356    7.1800    1.1711 C.3       1 YZ9900      0.0513 
       2 C11        2.3090    5.9653    0.4470 C.3       1 YZ9900      0.2089 
       3 O1         1.9716    5.0335    2.8821 O.2       1 YZ9900     -0.2447 
       4 O2         1.5077    4.8168    0.7364 O.3       1 YZ9900     -0.4453 
       5 C6        -0.4927    1.2079    5.2870 C.ar      1 YZ9900      0.0063 
       6 C5         0.4663    2.8340    3.6427 C.ar      1 YZ9900      0.0160 
       7 C4        -1.7901   -0.1638    3.2384 C.ar      1 YZ9900      0.0796 
       8 O3        -0.8946    1.3724    1.6113 O.2       1 YZ9900     -0.4208 
       9 C2        -0.3577    1.6479    3.9659 C.ar      1 YZ9900      0.0353 
      10 C1        -1.0097    0.9587    2.9365 C.ar      1 YZ9900      0.1519 
      11 C7        -0.1178    2.4893    1.3121 C.ar      1 YZ9900      0.3521 
      12 C12        1.4037    4.4255    2.0244 C.2       1 YZ9900      0.3476 
      13 O4        -2.7030   -1.7118    4.8046 O.3       1 YZ9900     -0.2865 
      14 O5        -0.0302    2.8347    0.1453 O.2       1 YZ9900     -0.2442 
      15 C10       -1.2744    0.0849    5.5833 C.ar      1 YZ9900      0.0422 
      16 C9         0.5858    3.2427    2.3740 C.ar      1 YZ9900      0.1515 
      17 C8        -1.9288   -0.6087    4.5584 C.ar      1 YZ9900      0.1988 
      18 H31        1.7500    7.0018    2.2444 H         1 YZ9900      0.0000 
      19 H32        2.3375    8.0565    0.9402 H         1 YZ9900      0.0000 
      20 H33        0.7114    7.3463    0.8441 H         1 YZ9900      0.0000 
      21 H112       3.3285    5.7895    0.7836 H         1 YZ9900      0.0000 
      22 H113       2.3068    6.1472   -0.6256 H         1 YZ9900      0.0000 
      23 H6         0.0072    1.7347    6.0864 H         1 YZ9900      0.0000 
      24 H5         0.9652    3.3588    4.4440 H         1 YZ9900      0.0000 
      25 H4        -2.2911   -0.6923    2.4407 H         1 YZ9900      0.0000 
      26 HO4       -3.0922   -2.0531    3.9842 H         1 YZ9900      0.0000 
      27 H10       -1.3623   -0.2341    6.6114 H         1 YZ9900      0.0000 
@<TRIPOS>BOND
       1       13       17 1        
       2        7       17 ar       
       3        7       10 ar       
       4        8       10 ar       
       5        8       11 ar       
       6       14       11 2        
       7       17       15 ar       
       8       10        9 ar       
       9       11       16 ar       
      10        2        4 1        
      11        2        1 1        
      12       15        5 ar       
      13        9        5 ar       
      14        9        6 ar       
      15       16        6 ar       
      16       16       12 1        
      17        4       12 1        
      18       12        3 2        
      19       18        1 1        
      20       19        1 1        
      21       20        1 1        
      22       21        2 1        
      23       22        2 1        
      24       23        5 1        
      25       24        6 1        
      26       25        7 1        
      27       26       13 1        
      28       27       15 1        
@<TRIPOS>SUBSTRUCTURE
 1 YZ9900 10 RESIDUE 4 A YZ9900 0 ROOT

