#        scan_R01_S0065_C0000_L00001_S0001_C0000_G0010_E0001.mol2
#        Mon Jun 19 14:42:40 2017
#        Descriptor:      7    13    32     1     1     6
#        Energy - RMSD - RMSD MassCentre:     -42.6372    999.9999    999.9999
#        Receptor:       1  Surface Point:    65  Conformer:     0
#        Ligand:         1  Surface Point:     1  Conformer:     0
#        BUDE Formal Charge: 0
#        ATOM Count: 27
#        Heavy ATOM Count: 17
@<TRIPOS>MOLECULE
pdb1gcz_ligA.pdb_scan_R01_S0065_C0000_L00001_S0001_C0000_G0010_E0001
27 28 1 0 0
SMALL
GASTEIGER
@<TRIPOS>ATOM
       1 C3        -2.2365   -2.9589    8.5463 C.3       1 YZ9900      0.0513 
       2 C11       -1.0579   -2.5826    7.6948 C.3       1 YZ9900      0.2089 
       3 O1        -2.5431   -3.9714    4.9433 O.2       1 YZ9900     -0.2447 
       4 O2        -1.0019   -3.4706    6.5078 O.3       1 YZ9900     -0.4453 
       5 C6        -2.6268    0.3829    2.0138 C.ar      1 YZ9900      0.0063 
       6 C5        -2.1621   -1.5403    3.5776 C.ar      1 YZ9900      0.0160 
       7 C4         0.2058    1.1465    2.1673 C.ar      1 YZ9900      0.0796 
       8 O3         0.5365   -0.7187    3.6506 O.2       1 YZ9900     -0.4208 
       9 C2        -1.7033   -0.3504    2.7964 C.ar      1 YZ9900      0.0353 
      10 C1        -0.3293    0.0363    2.8579 C.ar      1 YZ9900      0.1519 
      11 C7         0.1436   -1.7231    4.4005 C.ar      1 YZ9900      0.3521 
      12 C12       -1.6479   -3.2773    5.3186 C.2       1 YZ9900      0.3476 
      13 O4        -0.3763    2.9349    0.6957 O.3       1 YZ9900     -0.2865 
      14 O5         0.9331   -2.2622    5.0675 O.2       1 YZ9900     -0.2442 
      15 C10       -2.1378    1.5145    1.2986 C.ar      1 YZ9900      0.0422 
      16 C9        -1.2597   -2.1566    4.4015 C.ar      1 YZ9900      0.1515 
      17 C8        -0.7694    1.8553    1.3933 C.ar      1 YZ9900      0.1988 
      18 H31       -3.1513   -2.8738    7.9596 H         1 YZ9900      0.0000 
      19 H32       -2.1213   -3.9862    8.8922 H         1 YZ9900      0.0000 
      20 H33       -2.2922   -2.2904    9.4054 H         1 YZ9900      0.0000 
      21 H112      -0.1412   -2.6926    8.2743 H         1 YZ9900      0.0000 
      22 H113      -1.1602   -1.5473    7.3696 H         1 YZ9900      0.0000 
      23 H6        -3.6661    0.0948    1.9603 H         1 YZ9900      0.0000 
      24 H5        -3.1760   -1.9027    3.4941 H         1 YZ9900      0.0000 
      25 H4         1.2461    1.4323    2.2177 H         1 YZ9900      0.0000 
      26 HO4       -0.7256    3.7280    1.1086 H         1 YZ9900      0.0000 
      27 H10       -2.8063    2.1058    0.6903 H         1 YZ9900      0.0000 
@<TRIPOS>BOND
       1       13       17 1        
       2        7       17 ar       
       3        7       10 ar       
       4        8       10 ar       
       5        8       11 ar       
       6       14       11 2        
       7       17       15 ar       
       8       10        9 ar       
       9       11       16 ar       
      10        2        4 1        
      11        2        1 1        
      12       15        5 ar       
      13        9        5 ar       
      14        9        6 ar       
      15       16        6 ar       
      16       16       12 1        
      17        4       12 1        
      18       12        3 2        
      19       18        1 1        
      20       19        1 1        
      21       20        1 1        
      22       21        2 1        
      23       22        2 1        
      24       23        5 1        
      25       24        6 1        
      26       25        7 1        
      27       26       13 1        
      28       27       15 1        
@<TRIPOS>SUBSTRUCTURE
 1 YZ9900 10 RESIDUE 4 A YZ9900 0 ROOT

