#        1GCZ_R01_S0001_C0000_L00005_S0001_C0008_G0010_E0001.mol2
#        Tue Jun  6 09:55:35 2017
#        Descriptor:     19    18    22    12     7    14
#        Energy - RMSD - RMSD MassCentre:     -61.0516    999.9999    999.9999
#        Receptor:       1  Surface Point:     1  Conformer:     0
#        Ligand:         5  Surface Point:     1  Conformer:     8
#        BUDE Formal Charge: 0
#        ATOM Count: 55
#        Heavy ATOM Count: 30
@<TRIPOS>MOLECULE
ZINC61464195_1GCZ_R01_S0001_C0000_L00005_S0001_C0008_G0010_E0001
 55 56 0 0 0
SMALL
USER_CHARGES
@<TRIPOS>ATOM
       1 C1        -1.1728    2.7463    5.9578 C.3       1 <0>        -0.1456 
       2 C2        -0.0170    1.8439    5.5353 C.3       1 <0>        -0.0579 
       3 C3         1.3037    2.5839    5.7271 C.3       1 <0>        -0.1456 
       4 C4        -0.0201    0.5940    6.3824 C.ar      1 <0>        -0.0771 
       5 C5        -0.1769   -0.6417    5.7435 C.ar      1 <0>        -0.0943 
       6 C6        -0.0846   -1.8256    6.4850 C.ar      1 <0>        -0.0923 
       7 C7         0.1699   -1.7843    7.8610 C.ar      1 <0>        -0.1041 
       8 C8         0.2758   -0.5524    8.5175 C.ar      1 <0>        -0.1315 
       9 C9         0.1484    0.6275    7.7748 C.ar      1 <0>        -0.0969 
      10 S1         0.3498   -3.2944    8.7667 S.3       1 <0>        -0.0341 
      11 C10        2.0989   -3.7974    8.7640 C.3       1 <0>        -0.1267 
      12 C11        2.5547   -4.0228    7.3421 C.2       1 <0>         0.4864 
      13 O1         2.6396   -5.1337    6.9100 O.2       1 <0>        -0.4815 
      14 O2         2.8664   -2.9686    6.5587 O.3       1 <0>        -0.3231 
      15 C12        3.2931   -3.2313    5.2193 C.3       1 <0>         0.0526 
      16 C13        4.5804   -4.0201    5.2478 C.2       1 <0>         0.5250 
      17 O3         4.6384   -5.1216    4.7034 O.2       1 <0>        -0.5082 
      18 N1         5.6514   -3.5247    5.8610 N.am      1 <0>        -0.5981 
      19 C14        6.9038   -4.2939    5.8877 C.3       1 <0>         0.0731 
      20 C15        5.5822   -2.2083    6.5114 C.3       1 <0>         0.1010 
      21 C16        6.8360   -1.4269    6.1991 C.2       1 <0>         0.4997 
      22 O4         7.4876   -0.9203    7.1110 O.2       1 <0>        -0.5061 
      23 N2         7.2350   -1.2869    4.9380 N.am      1 <0>        -0.6702 
      24 C17        8.4099   -0.5547    4.6453 C.ar      1 <0>         0.1553 
      25 C18        9.3218   -1.0423    3.7017 C.ar      1 <0>        -0.1106 
      26 C19       10.4794   -0.3110    3.4101 C.ar      1 <0>        -0.0959 
      27 C20       10.7312    0.8988    4.0631 C.ar      1 <0>        -0.1208 
      28 C21        9.8267    1.3806    5.0169 C.ar      1 <0>        -0.0919 
      29 C22        8.6647    0.6542    5.3038 C.ar      1 <0>        -0.0639 
      30 Cl1        7.5399    1.2476    6.4913 Cl        1 <0>        -0.0632 
      31 H1        -1.0496    3.0278    7.0014 H         1 <0>         0.0596 
      32 H2        -1.1786    3.6410    5.3385 H         1 <0>         0.0563 
      33 H3        -2.1128    2.2126    5.8339 H         1 <0>         0.0575 
      34 H4        -0.1324    1.5719    4.4883 H         1 <0>         0.0784 
      35 H5         2.1259    1.9441    5.4138 H         1 <0>         0.0596 
      36 H6         1.4244    2.8430    6.7769 H         1 <0>         0.0574 
      37 H7         1.3005    3.4916    5.1270 H         1 <0>         0.0563 
      38 H8        -0.3532   -0.6997    4.6796 H         1 <0>         0.1285 
      39 H9        -0.1936   -2.8023    6.0371 H         1 <0>         0.1293 
      40 H10        0.4536   -0.5360    9.5826 H         1 <0>         0.1227 
      41 H11        0.1971    1.5684    8.3027 H         1 <0>         0.1262 
      42 H12        2.7029   -3.0146    9.2180 H         1 <0>         0.1329 
      43 H13        2.2127   -4.7191    9.3310 H         1 <0>         0.1329 
      44 H14        3.4568   -2.2898    4.6990 H         1 <0>         0.1063 
      45 H15        2.5283   -3.8051    4.7002 H         1 <0>         0.1054 
      46 H16        7.2489   -4.4594    4.8692 H         1 <0>         0.0686 
      47 H17        7.6580   -3.7384    6.4411 H         1 <0>         0.0794 
      48 H18        6.7298   -5.2523    6.3725 H         1 <0>         0.0778 
      49 H19        4.7146   -1.6665    6.1406 H         1 <0>         0.1198 
      50 H20        5.4952   -2.3406    7.5879 H         1 <0>         0.1233 
      51 H21        6.6991   -1.7034    4.1900 H         1 <0>         0.4142 
      52 H22        9.1331   -1.9766    3.1938 H         1 <0>         0.1473 
      53 H23       11.1780   -0.6851    2.6762 H         1 <0>         0.1337 
      54 H24       11.6224    1.4646    3.8350 H         1 <0>         0.1349 
      55 H25       10.0230    2.3120    5.5272 H         1 <0>         0.1385 
@<TRIPOS>BOND
       1        1        2 1        
       2        1       31 1        
       3        1       32 1        
       4        1       33 1        
       5        2        3 1        
       6        2        4 1        
       7        2       34 1        
       8        3       35 1        
       9        3       36 1        
      10        3       37 1        
      11        4        9 ar       
      12        4        5 ar       
      13        5        6 ar       
      14        5       38 1        
      15        6        7 ar       
      16        6       39 1        
      17        7        8 ar       
      18        7       10 1        
      19        8        9 ar       
      20        8       40 1        
      21        9       41 1        
      22       10       11 1        
      23       11       12 1        
      24       11       42 1        
      25       11       43 1        
      26       12       13 2        
      27       12       14 1        
      28       14       15 1        
      29       15       16 1        
      30       15       44 1        
      31       15       45 1        
      32       16       17 2        
      33       16       18 am       
      34       18       19 1        
      35       18       20 1        
      36       19       46 1        
      37       19       47 1        
      38       19       48 1        
      39       20       21 1        
      40       20       49 1        
      41       20       50 1        
      42       21       22 2        
      43       21       23 am       
      44       23       24 1        
      45       23       51 1        
      46       24       29 ar       
      47       24       25 ar       
      48       25       26 ar       
      49       25       52 1        
      50       26       27 ar       
      51       26       53 1        
      52       27       28 ar       
      53       27       54 1        
      54       28       29 ar       
      55       28       55 1        
      56       29       30 1        

