#        scan_R01_S0065_C0000_L00001_S0001_C0002_G0010_E0001.mol2
#        Mon Jun 19 14:14:31 2017
#        Descriptor:     23    34     5     1     1     5
#        Energy - RMSD - RMSD MassCentre:     -42.1746    999.9999    999.9999
#        Receptor:       1  Surface Point:    65  Conformer:     0
#        Ligand:         1  Surface Point:     1  Conformer:     2
#        BUDE Formal Charge: 0
#        ATOM Count: 27
#        Heavy ATOM Count: 17
@<TRIPOS>MOLECULE
pdb1gcz_ligA.pdb_scan_R01_S0065_C0000_L00001_S0001_C0002_G0010_E0001
27 28 1 0 0
SMALL
GASTEIGER
@<TRIPOS>ATOM
       1 C3        -6.0547   -6.0431    4.9136 C.3       1 YZ9900      0.0513 
       2 C11       -6.1202   -4.8781    3.9302 C.3       1 YZ9900      0.2089 
       3 O1        -5.6474   -2.7814    2.4161 O.2       1 YZ9900     -0.2447 
       4 O2        -4.8632   -4.1965    3.9157 O.3       1 YZ9900     -0.4453 
       5 C6        -1.8186    0.4996    1.3838 C.ar      1 YZ9900      0.0063 
       6 C5        -3.2913   -1.3315    2.2474 C.ar      1 YZ9900      0.0160 
       7 C4         0.2781   -0.3661    3.0012 C.ar      1 YZ9900      0.0796 
       8 O3        -1.0949   -2.1476    3.8673 O.2       1 YZ9900     -0.4208 
       9 C2        -1.9992   -0.6105    2.2156 C.ar      1 YZ9900      0.0353 
      10 C1        -0.9457   -1.0456    3.0284 C.ar      1 YZ9900      0.1519 
      11 C7        -2.3130   -2.8229    3.8936 C.ar      1 YZ9900      0.3521 
      12 C12       -4.7306   -3.1299    3.0987 C.2       1 YZ9900      0.3476 
      13 O4         1.6800    1.3777    2.1786 O.3       1 YZ9900     -0.2865 
      14 O5        -2.4226   -3.7854    4.6352 O.2       1 YZ9900     -0.2442 
      15 C10       -0.5927    1.1754    1.3605 C.ar      1 YZ9900      0.0422 
      16 C9        -3.4488   -2.3918    3.0485 C.ar      1 YZ9900      0.1515 
      17 C8         0.4647    0.7453    2.1708 C.ar      1 YZ9900      0.1988 
      18 H31       -5.8485   -5.6629    5.9120 H         1 YZ9900      0.0000 
      19 H32       -7.0068   -6.5696    4.9148 H         1 YZ9900      0.0000 
      20 H33       -5.2624   -6.7257    4.6139 H         1 YZ9900      0.0000 
      21 H112      -6.9030   -4.1873    4.2367 H         1 YZ9900      0.0000 
      22 H113      -6.3388   -5.2557    2.9336 H         1 YZ9900      0.0000 
      23 H6        -2.6268    0.8410    0.7541 H         1 YZ9900      0.0000 
      24 H5        -4.0979   -0.9880    1.6166 H         1 YZ9900      0.0000 
      25 H4         1.0880   -0.7055    3.6300 H         1 YZ9900      0.0000 
      26 HO4        2.2859    0.9580    2.8092 H         1 YZ9900      0.0000 
      27 H10       -0.4792    2.0296    0.7094 H         1 YZ9900      0.0000 
@<TRIPOS>BOND
       1       13       17 1        
       2        7       17 ar       
       3        7       10 ar       
       4        8       10 ar       
       5        8       11 ar       
       6       14       11 2        
       7       17       15 ar       
       8       10        9 ar       
       9       11       16 ar       
      10        2        4 1        
      11        2        1 1        
      12       15        5 ar       
      13        9        5 ar       
      14        9        6 ar       
      15       16        6 ar       
      16       16       12 1        
      17        4       12 1        
      18       12        3 2        
      19       18        1 1        
      20       19        1 1        
      21       20        1 1        
      22       21        2 1        
      23       22        2 1        
      24       23        5 1        
      25       24        6 1        
      26       25        7 1        
      27       26       13 1        
      28       27       15 1        
@<TRIPOS>SUBSTRUCTURE
 1 YZ9900 10 RESIDUE 4 A YZ9900 0 ROOT

