#        scan_R01_S0065_C0000_L00001_S0001_C0003_G0010_E0001.mol2
#        Mon Jun 19 14:42:42 2017
#        Descriptor:      5    22    27     1     2     5
#        Energy - RMSD - RMSD MassCentre:     -41.6746    999.9999    999.9999
#        Receptor:       1  Surface Point:    65  Conformer:     0
#        Ligand:         1  Surface Point:     1  Conformer:     3
#        BUDE Formal Charge: 0
#        ATOM Count: 27
#        Heavy ATOM Count: 17
@<TRIPOS>MOLECULE
pdb1gcz_ligA.pdb_scan_R01_S0065_C0000_L00001_S0001_C0003_G0010_E0001
27 28 1 0 0
SMALL
GASTEIGER
@<TRIPOS>ATOM
       1 C3        -3.8879   -5.3806    6.4250 C.3       1 YZ9900      0.0513 
       2 C11       -2.4295   -5.5662    6.0158 C.3       1 YZ9900      0.2089 
       3 O1        -3.4150   -4.2892    3.9398 O.2       1 YZ9900     -0.2447 
       4 O2        -1.9047   -4.3213    5.5472 O.3       1 YZ9900     -0.4453 
       5 C6        -2.5910    0.0323    1.2684 C.ar      1 YZ9900      0.0063 
       6 C5        -2.5422   -1.8800    2.8833 C.ar      1 YZ9900      0.0160 
       7 C4        -0.4284    1.2287    2.5541 C.ar      1 YZ9900      0.0796 
       8 O3        -0.3350   -0.5868    4.1366 O.2       1 YZ9900     -0.4208 
       9 C2        -2.0158   -0.5914    2.3806 C.ar      1 YZ9900      0.0353 
      10 C1        -0.9291    0.0098    3.0267 C.ar      1 YZ9900      0.1519 
      11 C7        -0.8341   -1.7997    4.6059 C.ar      1 YZ9900      0.3521 
      12 C12       -2.4887   -3.7528    4.4709 C.2       1 YZ9900      0.3476 
      13 O4        -0.4753    3.0494    1.0159 O.3       1 YZ9900     -0.2865 
      14 O5        -0.2994   -2.3051    5.5791 O.2       1 YZ9900     -0.2442 
      15 C10       -2.0863    1.2512    0.7999 C.ar      1 YZ9900      0.0422 
      16 C9        -1.9813   -2.4645    3.9486 C.ar      1 YZ9900      0.1515 
      17 C8        -0.9998    1.8575    1.4415 C.ar      1 YZ9900      0.1988 
      18 H31       -4.4672   -5.0562    5.5630 H         1 YZ9900      0.0000 
      19 H32       -4.2833   -6.3246    6.7940 H         1 YZ9900      0.0000 
      20 H33       -3.9510   -4.6290    7.2090 H         1 YZ9900      0.0000 
      21 H112      -2.3664   -6.3074    5.2219 H         1 YZ9900      0.0000 
      22 H113      -1.8515   -5.9027    6.8739 H         1 YZ9900      0.0000 
      23 H6        -3.4296   -0.4256    0.7649 H         1 YZ9900      0.0000 
      24 H5        -3.3808   -2.3357    2.3779 H         1 YZ9900      0.0000 
      25 H4         0.4102    1.6887    3.0558 H         1 YZ9900      0.0000 
      26 HO4        0.2586    3.3290    1.5853 H         1 YZ9900      0.0000 
      27 H10       -2.5484    1.7120   -0.0607 H         1 YZ9900      0.0000 
@<TRIPOS>BOND
       1       13       17 1        
       2        7       17 ar       
       3        7       10 ar       
       4        8       10 ar       
       5        8       11 ar       
       6       14       11 2        
       7       17       15 ar       
       8       10        9 ar       
       9       11       16 ar       
      10        2        4 1        
      11        2        1 1        
      12       15        5 ar       
      13        9        5 ar       
      14        9        6 ar       
      15       16        6 ar       
      16       16       12 1        
      17        4       12 1        
      18       12        3 2        
      19       18        1 1        
      20       19        1 1        
      21       20        1 1        
      22       21        2 1        
      23       22        2 1        
      24       23        5 1        
      25       24        6 1        
      26       25        7 1        
      27       26       13 1        
      28       27       15 1        
@<TRIPOS>SUBSTRUCTURE
 1 YZ9900 10 RESIDUE 4 A YZ9900 0 ROOT

