#        scan_R01_S0066_C0000_L00001_S0001_C0000_G0010_E0001.mol2
#        Mon Jun 19 14:42:42 2017
#        Descriptor:     10    22    27     3     2     5
#        Energy - RMSD - RMSD MassCentre:     -25.8416    999.9999    999.9999
#        Receptor:       1  Surface Point:    66  Conformer:     0
#        Ligand:         1  Surface Point:     1  Conformer:     0
#        BUDE Formal Charge: 0
#        ATOM Count: 27
#        Heavy ATOM Count: 17
@<TRIPOS>MOLECULE
pdb1gcz_ligA.pdb_scan_R01_S0066_C0000_L00001_S0001_C0000_G0010_E0001
27 28 1 0 0
SMALL
GASTEIGER
@<TRIPOS>ATOM
       1 C3         0.5927    5.0118    3.8667 C.3       1 YZ9900      0.0513 
       2 C11        1.4780    3.8277    4.1313 C.3       1 YZ9900      0.2089 
       3 O1        -1.2484    1.8934    4.8602 O.2       1 YZ9900     -0.2447 
       4 O2         0.7736    2.8729    5.0218 O.3       1 YZ9900     -0.4453 
       5 C6        -0.4443   -1.7398    1.1586 C.ar      1 YZ9900      0.0063 
       6 C5        -0.3491    0.0099    2.9723 C.ar      1 YZ9900      0.0160 
       7 C4         2.3316   -2.4788    1.7740 C.ar      1 YZ9900      0.0796 
       8 O3         2.3113   -0.7824    3.4801 O.2       1 YZ9900     -0.4208 
       9 C2         0.2863   -1.0885    2.1808 C.ar      1 YZ9900      0.0353 
      10 C1         1.6354   -1.4626    2.4658 C.ar      1 YZ9900      0.1519 
      11 C7         1.7992    0.2317    4.1397 C.ar      1 YZ9900      0.3521 
      12 C12       -0.0771    1.8763    4.6321 C.2       1 YZ9900      0.3476 
      13 O4         2.1099   -4.0837    0.0197 O.3       1 YZ9900     -0.2865 
      14 O5         2.4598    0.7686    4.9359 O.2       1 YZ9900     -0.2442 
      15 C10        0.2137   -2.7718    0.4282 C.ar      1 YZ9900      0.0422 
      16 C9         0.4257    0.6818    3.8785 C.ar      1 YZ9900      0.1515 
      17 C8         1.5495   -3.1036    0.7491 C.ar      1 YZ9900      0.1988 
      18 H31       -0.3380    4.6754    3.4096 H         1 YZ9900      0.0000 
      19 H32        0.3732    5.5183    4.8066 H         1 YZ9900      0.0000 
      20 H33        1.1004    5.7014    3.1923 H         1 YZ9900      0.0000 
      21 H112       2.3976    4.1618    4.6118 H         1 YZ9900      0.0000 
      22 H113       1.7185    3.3358    3.1888 H         1 YZ9900      0.0000 
      23 H6        -1.4652   -1.4644    0.9395 H         1 YZ9900      0.0000 
      24 H5        -1.3890    0.2655    2.8328 H         1 YZ9900      0.0000 
      25 H4         3.3513   -2.7568    1.9957 H         1 YZ9900      0.0000 
      26 HO4        2.2765   -3.7655   -0.8705 H         1 YZ9900      0.0000 
      27 H10       -0.3034   -3.2950   -0.3626 H         1 YZ9900      0.0000 
@<TRIPOS>BOND
       1       13       17 1        
       2        7       17 ar       
       3        7       10 ar       
       4        8       10 ar       
       5        8       11 ar       
       6       14       11 2        
       7       17       15 ar       
       8       10        9 ar       
       9       11       16 ar       
      10        2        4 1        
      11        2        1 1        
      12       15        5 ar       
      13        9        5 ar       
      14        9        6 ar       
      15       16        6 ar       
      16       16       12 1        
      17        4       12 1        
      18       12        3 2        
      19       18        1 1        
      20       19        1 1        
      21       20        1 1        
      22       21        2 1        
      23       22        2 1        
      24       23        5 1        
      25       24        6 1        
      26       25        7 1        
      27       26       13 1        
      28       27       15 1        
@<TRIPOS>SUBSTRUCTURE
 1 YZ9900 10 RESIDUE 4 A YZ9900 0 ROOT

