#        scan_R01_S0066_C0000_L00001_S0001_C0000_G0010_E0001.mol2
#        Mon Jun 19 14:14:32 2017
#        Descriptor:     10    23    27     3     3     5
#        Energy - RMSD - RMSD MassCentre:     -29.7070    999.9999    999.9999
#        Receptor:       1  Surface Point:    66  Conformer:     0
#        Ligand:         1  Surface Point:     1  Conformer:     0
#        BUDE Formal Charge: 0
#        ATOM Count: 27
#        Heavy ATOM Count: 17
@<TRIPOS>MOLECULE
pdb1gcz_ligA.pdb_scan_R01_S0066_C0000_L00001_S0001_C0000_G0010_E0001
27 28 1 0 0
SMALL
GASTEIGER
@<TRIPOS>ATOM
       1 C3         0.5927    6.0862    2.9832 C.3       1 YZ9900      0.0513 
       2 C11        1.4780    4.9660    3.4495 C.3       1 YZ9900      0.2089 
       3 O1        -1.2484    3.1877    4.5032 O.2       1 YZ9900     -0.2447 
       4 O2         0.7736    4.1804    4.4922 O.3       1 YZ9900     -0.4453 
       5 C6        -0.4443   -1.0331    1.4887 C.ar      1 YZ9900      0.0063 
       6 C5        -0.3491    1.0049    2.9710 C.ar      1 YZ9900      0.0160 
       7 C4         2.3316   -1.6540    2.2231 C.ar      1 YZ9900      0.0796 
       8 O3         2.3113    0.3128    3.6087 O.2       1 YZ9900     -0.4208 
       9 C2         0.2863   -0.2142    2.3823 C.ar      1 YZ9900      0.0353 
      10 C1         1.6354   -0.5331    2.7279 C.ar      1 YZ9900      0.1519 
      11 C7         1.7992    1.4260    4.0821 C.ar      1 YZ9900      0.3521 
      12 C12       -0.0771    3.1312    4.2815 C.2       1 YZ9900      0.3476 
      13 O4         2.1099   -3.5392    0.7741 O.3       1 YZ9900     -0.2865 
      14 O5         2.4598    2.0931    4.7730 O.2       1 YZ9900     -0.2442 
      15 C10        0.2137   -2.1762    0.9486 C.ar      1 YZ9900      0.0422 
      16 C9         0.4257    1.8240    3.7467 C.ar      1 YZ9900      0.1515 
      17 C8         1.5495   -2.4473    1.3222 C.ar      1 YZ9900      0.1988 
      18 H31       -0.3380    5.6755    2.5915 H         1 YZ9900      0.0000 
      19 H32        0.3732    6.7482    3.8209 H         1 YZ9900      0.0000 
      20 H33        1.1004    6.6482    2.1993 H         1 YZ9900      0.0000 
      21 H112       2.3976    5.3785    3.8646 H         1 YZ9900      0.0000 
      22 H113       1.7185    4.3179    2.6067 H         1 YZ9900      0.0000 
      23 H6        -1.4652   -0.7999    1.2251 H         1 YZ9900      0.0000 
      24 H5        -1.3890    1.2325    2.7892 H         1 YZ9900      0.0000 
      25 H4         3.3513   -1.8894    2.4897 H         1 YZ9900      0.0000 
      26 HO4        2.2765   -3.3804   -0.1578 H         1 YZ9900      0.0000 
      27 H10       -0.3034   -2.8289    0.2607 H         1 YZ9900      0.0000 
@<TRIPOS>BOND
       1       13       17 1        
       2        7       17 ar       
       3        7       10 ar       
       4        8       10 ar       
       5        8       11 ar       
       6       14       11 2        
       7       17       15 ar       
       8       10        9 ar       
       9       11       16 ar       
      10        2        4 1        
      11        2        1 1        
      12       15        5 ar       
      13        9        5 ar       
      14        9        6 ar       
      15       16        6 ar       
      16       16       12 1        
      17        4       12 1        
      18       12        3 2        
      19       18        1 1        
      20       19        1 1        
      21       20        1 1        
      22       21        2 1        
      23       22        2 1        
      24       23        5 1        
      25       24        6 1        
      26       25        7 1        
      27       26       13 1        
      28       27       15 1        
@<TRIPOS>SUBSTRUCTURE
 1 YZ9900 10 RESIDUE 4 A YZ9900 0 ROOT

