#        scan_R01_S0066_C0000_L00001_S0001_C0002_G0010_E0001.mol2
#        Mon Jun 19 14:14:33 2017
#        Descriptor:     14    35    25     2     3     5
#        Energy - RMSD - RMSD MassCentre:     -30.4639    999.9999    999.9999
#        Receptor:       1  Surface Point:    66  Conformer:     0
#        Ligand:         1  Surface Point:     1  Conformer:     2
#        BUDE Formal Charge: 0
#        ATOM Count: 27
#        Heavy ATOM Count: 17
@<TRIPOS>MOLECULE
pdb1gcz_ligA.pdb_scan_R01_S0066_C0000_L00001_S0001_C0002_G0010_E0001
27 28 1 0 0
SMALL
GASTEIGER
@<TRIPOS>ATOM
       1 C3         1.9129    8.1105    3.6533 C.3       1 YZ9900      0.0513 
       2 C11        0.9829    7.4067    2.6693 C.3       1 YZ9900      0.2089 
       3 O1        -0.4607    5.6905    1.2971 O.2       1 YZ9900     -0.2447 
       4 O2         0.9437    6.0088    2.9682 O.3       1 YZ9900     -0.4453 
       5 C6        -1.5158    0.6533    1.2356 C.ar      1 YZ9900      0.0063 
       6 C5        -0.6681    2.9589    1.7183 C.ar      1 YZ9900      0.0160 
       7 C4        -0.0264   -0.3829    3.3497 C.ar      1 YZ9900      0.0796 
       8 O3         0.8217    1.8148    3.8598 O.2       1 YZ9900     -0.4208 
       9 C2        -0.7243    1.5089    2.0092 C.ar      1 YZ9900      0.0353 
      10 C1         0.0242    0.9883    3.0715 C.ar      1 YZ9900      0.1519 
      11 C7         0.8712    3.1789    3.5820 C.ar      1 YZ9900      0.3521 
      12 C12        0.1672    5.2179    2.1973 C.2       1 YZ9900      0.3476 
      13 O4        -0.8338   -2.5781    2.8896 O.3       1 YZ9900     -0.2865 
      14 O5         1.5758    3.8850    4.2845 O.2       1 YZ9900     -0.2442 
      15 C10       -1.5626   -0.7171    1.5182 C.ar      1 YZ9900      0.0422 
      16 C9         0.0938    3.7647    2.4673 C.ar      1 YZ9900      0.1515 
      17 C8        -0.8166   -1.2439    2.5791 C.ar      1 YZ9900      0.1988 
      18 H31        2.9167    7.7015    3.5583 H         1 YZ9900      0.0000 
      19 H32        1.9323    9.1760    3.4341 H         1 YZ9900      0.0000 
      20 H33        1.5516    7.9547    4.6676 H         1 YZ9900      0.0000 
      21 H112       1.3509    7.5499    1.6554 H         1 YZ9900      0.0000 
      22 H113      -0.0186    7.8233    2.7543 H         1 YZ9900      0.0000 
      23 H6        -2.0958    1.0478    0.4145 H         1 YZ9900      0.0000 
      24 H5        -1.2492    3.3508    0.8966 H         1 YZ9900      0.0000 
      25 H4         0.5528   -0.7799    4.1704 H         1 YZ9900      0.0000 
      26 HO4       -0.2476   -2.7681    3.6388 H         1 YZ9900      0.0000 
      27 H10       -2.1816   -1.3561    0.9058 H         1 YZ9900      0.0000 
@<TRIPOS>BOND
       1       13       17 1        
       2        7       17 ar       
       3        7       10 ar       
       4        8       10 ar       
       5        8       11 ar       
       6       14       11 2        
       7       17       15 ar       
       8       10        9 ar       
       9       11       16 ar       
      10        2        4 1        
      11        2        1 1        
      12       15        5 ar       
      13        9        5 ar       
      14        9        6 ar       
      15       16        6 ar       
      16       16       12 1        
      17        4       12 1        
      18       12        3 2        
      19       18        1 1        
      20       19        1 1        
      21       20        1 1        
      22       21        2 1        
      23       22        2 1        
      24       23        5 1        
      25       24        6 1        
      26       25        7 1        
      27       26       13 1        
      28       27       15 1        
@<TRIPOS>SUBSTRUCTURE
 1 YZ9900 10 RESIDUE 4 A YZ9900 0 ROOT

