#        scan_R01_S0066_C0000_L00001_S0001_C0003_G0010_E0001.mol2
#        Mon Jun 19 14:14:33 2017
#        Descriptor:     13    20    11     3     2     4
#        Energy - RMSD - RMSD MassCentre:     -31.3707    999.9999    999.9999
#        Receptor:       1  Surface Point:    66  Conformer:     0
#        Ligand:         1  Surface Point:     1  Conformer:     3
#        BUDE Formal Charge: 0
#        ATOM Count: 27
#        Heavy ATOM Count: 17
@<TRIPOS>MOLECULE
pdb1gcz_ligA.pdb_scan_R01_S0066_C0000_L00001_S0001_C0003_G0010_E0001
27 28 1 0 0
SMALL
GASTEIGER
@<TRIPOS>ATOM
       1 C3         0.5273    5.1689    6.6989 C.3       1 YZ9900      0.0513 
       2 C11        0.5519    5.6071    5.2374 C.3       1 YZ9900      0.2089 
       3 O1         2.2660    3.6137    5.2329 O.2       1 YZ9900     -0.2447 
       4 O2         0.4096    4.4607    4.3946 O.3       1 YZ9900     -0.4453 
       5 C6         2.9904   -0.9011    2.8701 C.ar      1 YZ9900      0.0063 
       6 C5         2.1652    1.3185    3.6823 C.ar      1 YZ9900      0.0160 
       7 C4         0.8298   -1.1133    1.1242 C.ar      1 YZ9900      0.0796 
       8 O3        -0.0110    1.0193    1.8688 O.2       1 YZ9900     -0.4208 
       9 C2         2.0387    0.1229    2.8193 C.ar      1 YZ9900      0.0353 
      10 C1         0.9529    0.0163    1.9421 C.ar      1 YZ9900      0.1519 
      11 C7         0.1125    2.1427    2.6830 C.ar      1 YZ9900      0.3521 
      12 C12        1.3501    3.4953    4.4745 C.2       1 YZ9900      0.3476 
      13 O4         1.6161   -3.2268    0.3512 O.3       1 YZ9900     -0.2865 
      14 O5        -0.7425    3.0093    2.6032 O.2       1 YZ9900     -0.2442 
      15 C10        2.8624   -2.0285    2.0500 C.ar      1 YZ9900      0.0422 
      16 C9         1.2466    2.2898    3.6224 C.ar      1 YZ9900      0.1515 
      17 C8         1.7791   -2.1411    1.1706 C.ar      1 YZ9900      0.1988 
      18 H31        1.3555    4.4886    6.8868 H         1 YZ9900      0.0000 
      19 H32        0.6220    6.0425    7.3404 H         1 YZ9900      0.0000 
      20 H33       -0.4129    4.6637    6.9097 H         1 YZ9900      0.0000 
      21 H112       1.4975    6.1000    5.0217 H         1 YZ9900      0.0000 
      22 H113      -0.2684    6.2972    5.0513 H         1 YZ9900      0.0000 
      23 H6         3.8307   -0.8258    3.5445 H         1 YZ9900      0.0000 
      24 H5         3.0064    1.3913    4.3557 H         1 YZ9900      0.0000 
      25 H4        -0.0095   -1.1910    0.4489 H         1 YZ9900      0.0000 
      26 HO4        0.8056   -3.1459   -0.1756 H         1 YZ9900      0.0000 
      27 H10        3.6109   -2.8049    2.1085 H         1 YZ9900      0.0000 
@<TRIPOS>BOND
       1       13       17 1        
       2        7       17 ar       
       3        7       10 ar       
       4        8       10 ar       
       5        8       11 ar       
       6       14       11 2        
       7       17       15 ar       
       8       10        9 ar       
       9       11       16 ar       
      10        2        4 1        
      11        2        1 1        
      12       15        5 ar       
      13        9        5 ar       
      14        9        6 ar       
      15       16        6 ar       
      16       16       12 1        
      17        4       12 1        
      18       12        3 2        
      19       18        1 1        
      20       19        1 1        
      21       20        1 1        
      22       21        2 1        
      23       22        2 1        
      24       23        5 1        
      25       24        6 1        
      26       25        7 1        
      27       26       13 1        
      28       27       15 1        
@<TRIPOS>SUBSTRUCTURE
 1 YZ9900 10 RESIDUE 4 A YZ9900 0 ROOT

