#        scan_R01_S0067_C0000_L00001_S0001_C0000_G0010_E0001.mol2
#        Mon Jun 19 14:42:44 2017
#        Descriptor:     31    12    14     2     2     9
#        Energy - RMSD - RMSD MassCentre:     -70.0790    999.9999    999.9999
#        Receptor:       1  Surface Point:    67  Conformer:     0
#        Ligand:         1  Surface Point:     1  Conformer:     0
#        BUDE Formal Charge: 0
#        ATOM Count: 27
#        Heavy ATOM Count: 17
@<TRIPOS>MOLECULE
pdb1gcz_ligA.pdb_scan_R01_S0067_C0000_L00001_S0001_C0000_G0010_E0001
27 28 1 0 0
SMALL
GASTEIGER
@<TRIPOS>ATOM
       1 C3         4.6466   -1.8234    8.0582 C.3       1 YZ9900      0.0513 
       2 C11        3.9329   -0.5881    7.5884 C.3       1 YZ9900      0.2089 
       3 O1         1.9589   -2.4610    5.5144 O.2       1 YZ9900     -0.2447 
       4 O2         3.3364   -0.8393    6.2536 O.3       1 YZ9900     -0.4453 
       5 C6        -2.6478   -1.0617    7.6049 C.ar      1 YZ9900      0.0063 
       6 C5        -0.3071   -1.2772    6.6912 C.ar      1 YZ9900      0.0160 
       7 C4        -2.3948    1.8619    7.4675 C.ar      1 YZ9900      0.0796 
       8 O3        -0.1739    1.5401    6.6000 O.2       1 YZ9900     -0.4208 
       9 C2        -1.4674   -0.4419    7.1301 C.ar      1 YZ9900      0.0353 
      10 C1        -1.3636    0.9818    7.0702 C.ar      1 YZ9900      0.1519 
      11 C7         0.8828    0.8298    6.2766 C.ar      1 YZ9900      0.3521 
      12 C12        2.1071   -1.3825    6.0033 C.2       1 YZ9900      0.3476 
      13 O4        -4.6120    1.9212    8.3526 O.3       1 YZ9900     -0.2865 
      14 O5         1.8486    1.3896    5.9411 O.2       1 YZ9900     -0.2442 
      15 C10       -3.7183   -0.2177    8.0208 C.ar      1 YZ9900      0.0422 
      16 C9         0.8501   -0.6373    6.3385 C.ar      1 YZ9900      0.1515 
      17 C8        -3.5650    1.1850    7.9419 C.ar      1 YZ9900      0.1988 
      18 H31        3.9436   -2.6553    8.1020 H         1 YZ9900      0.0000 
      19 H32        5.4512   -2.0642    7.3633 H         1 YZ9900      0.0000 
      20 H33        5.0634   -1.6471    9.0497 H         1 YZ9900      0.0000 
      21 H112       4.6417    0.2372    7.5201 H         1 YZ9900      0.0000 
      22 H113       3.1445   -0.3324    8.2964 H         1 YZ9900      0.0000 
      23 H6        -2.7344   -2.1371    7.6503 H         1 YZ9900      0.0000 
      24 H5        -0.3802   -2.3540    6.6536 H         1 YZ9900      0.0000 
      25 H4        -2.3096    2.9374    7.4184 H         1 YZ9900      0.0000 
      26 HO4       -4.6896    1.8632    9.3076 H         1 YZ9900      0.0000 
      27 H10       -4.6375   -0.6459    8.3926 H         1 YZ9900      0.0000 
@<TRIPOS>BOND
       1       13       17 1        
       2        7       17 ar       
       3        7       10 ar       
       4        8       10 ar       
       5        8       11 ar       
       6       14       11 2        
       7       17       15 ar       
       8       10        9 ar       
       9       11       16 ar       
      10        2        4 1        
      11        2        1 1        
      12       15        5 ar       
      13        9        5 ar       
      14        9        6 ar       
      15       16        6 ar       
      16       16       12 1        
      17        4       12 1        
      18       12        3 2        
      19       18        1 1        
      20       19        1 1        
      21       20        1 1        
      22       21        2 1        
      23       22        2 1        
      24       23        5 1        
      25       24        6 1        
      26       25        7 1        
      27       26       13 1        
      28       27       15 1        
@<TRIPOS>SUBSTRUCTURE
 1 YZ9900 10 RESIDUE 4 A YZ9900 0 ROOT

