#        scan_R01_S0067_C0000_L00001_S0001_C0000_G0010_E0001.mol2
#        Mon Jun 19 14:14:34 2017
#        Descriptor:      5    32    24     3     2     8
#        Energy - RMSD - RMSD MassCentre:     -63.1419    999.9999    999.9999
#        Receptor:       1  Surface Point:    67  Conformer:     0
#        Ligand:         1  Surface Point:     1  Conformer:     0
#        BUDE Formal Charge: 0
#        ATOM Count: 27
#        Heavy ATOM Count: 17
@<TRIPOS>MOLECULE
pdb1gcz_ligA.pdb_scan_R01_S0067_C0000_L00001_S0001_C0000_G0010_E0001
27 28 1 0 0
SMALL
GASTEIGER
@<TRIPOS>ATOM
       1 C3        -2.3591    0.6583    2.2160 C.3       1 YZ9900      0.0513 
       2 C11       -0.9807    1.0522    2.6639 C.3       1 YZ9900      0.2089 
       3 O1        -2.1097    1.5522    5.8547 O.2       1 YZ9900     -0.2447 
       4 O2        -1.0781    1.8939    3.8816 O.3       1 YZ9900     -0.4453 
       5 C6         1.0528   -1.9263    8.1886 C.ar      1 YZ9900      0.0063 
       6 C5        -0.0861   -0.1696    6.7827 C.ar      1 YZ9900      0.0160 
       7 C4         3.6514   -0.9994    7.1796 C.ar      1 YZ9900      0.0796 
       8 O3         2.4623    0.6400    5.8807 O.2       1 YZ9900     -0.4208 
       9 C2         1.1510   -0.8544    7.2699 C.ar      1 YZ9900      0.0353 
      10 C1         2.4242   -0.4174    6.7910 C.ar      1 YZ9900      0.1519 
      11 C7         1.3874    1.2093    5.3846 C.ar      1 YZ9900      0.3521 
      12 C12       -1.1356    1.4491    5.1730 C.2       1 YZ9900      0.3476 
      13 O4         4.5977   -2.7150    8.5448 O.3       1 YZ9900     -0.2865 
      14 O5         1.5200    2.0530    4.5913 O.2       1 YZ9900     -0.2442 
      15 C10        2.2627   -2.5501    8.6111 C.ar      1 YZ9900      0.0422 
      16 C9         0.0476    0.7910    5.8171 C.ar      1 YZ9900      0.1515 
      17 C8         3.4967   -2.0803    8.1071 C.ar      1 YZ9900      0.1988 
      18 H31       -2.8614    0.1170    3.0179 H         1 YZ9900      0.0000 
      19 H32       -2.9302    1.5533    1.9689 H         1 YZ9900      0.0000 
      20 H33       -2.2864    0.0192    1.3361 H         1 YZ9900      0.0000 
      21 H112      -0.4884    1.6157    1.8713 H         1 YZ9900      0.0000 
      22 H113      -0.4010    0.1564    2.8868 H         1 YZ9900      0.0000 
      23 H6         0.0942   -2.2601    8.5571 H         1 YZ9900      0.0000 
      24 H5        -1.0566   -0.4256    7.1811 H         1 YZ9900      0.0000 
      25 H4         4.6104   -0.6630    6.8141 H         1 YZ9900      0.0000 
      26 HO4        4.6370   -3.5925    8.1576 H         1 YZ9900      0.0000 
      27 H10        2.2368   -3.3737    9.3093 H         1 YZ9900      0.0000 
@<TRIPOS>BOND
       1       13       17 1        
       2        7       17 ar       
       3        7       10 ar       
       4        8       10 ar       
       5        8       11 ar       
       6       14       11 2        
       7       17       15 ar       
       8       10        9 ar       
       9       11       16 ar       
      10        2        4 1        
      11        2        1 1        
      12       15        5 ar       
      13        9        5 ar       
      14        9        6 ar       
      15       16        6 ar       
      16       16       12 1        
      17        4       12 1        
      18       12        3 2        
      19       18        1 1        
      20       19        1 1        
      21       20        1 1        
      22       21        2 1        
      23       22        2 1        
      24       23        5 1        
      25       24        6 1        
      26       25        7 1        
      27       26       13 1        
      28       27       15 1        
@<TRIPOS>SUBSTRUCTURE
 1 YZ9900 10 RESIDUE 4 A YZ9900 0 ROOT

