#        scan_R01_S0067_C0000_L00001_S0001_C0003_G0010_E0001.mol2
#        Mon Jun 19 14:14:36 2017
#        Descriptor:     23    18    15     3     1     9
#        Energy - RMSD - RMSD MassCentre:     -65.0229    999.9999    999.9999
#        Receptor:       1  Surface Point:    67  Conformer:     0
#        Ligand:         1  Surface Point:     1  Conformer:     3
#        BUDE Formal Charge: 0
#        ATOM Count: 27
#        Heavy ATOM Count: 17
@<TRIPOS>MOLECULE
pdb1gcz_ligA.pdb_scan_R01_S0067_C0000_L00001_S0001_C0003_G0010_E0001
27 28 1 0 0
SMALL
GASTEIGER
@<TRIPOS>ATOM
       1 C3        -5.9201   -0.3393    7.8349 C.3       1 YZ9900      0.0513 
       2 C11       -5.0863    0.8633    8.2676 C.3       1 YZ9900      0.2089 
       3 O1        -3.5762   -1.1466    9.0372 O.2       1 YZ9900     -0.2447 
       4 O2        -3.7371    0.6903    7.8264 O.3       1 YZ9900     -0.4453 
       5 C6         1.1899   -2.9467    8.3058 C.ar      1 YZ9900      0.0063 
       6 C5        -0.9534   -1.6530    8.2978 C.ar      1 YZ9900      0.0160 
       7 C4         2.3492   -1.1189    6.5518 C.ar      1 YZ9900      0.0796 
       8 O3         0.3105    0.1659    6.5065 O.2       1 YZ9900     -0.4208 
       9 C2         0.4446   -1.8522    7.8547 C.ar      1 YZ9900      0.0353 
      10 C1         1.0271   -0.9337    6.9733 C.ar      1 YZ9900      0.1519 
      11 C7        -1.0049    0.3491    6.9266 C.ar      1 YZ9900      0.3521 
      12 C12       -3.0528   -0.3791    8.2855 C.2       1 YZ9900      0.3476 
      13 O4         4.3898   -2.3513    6.5598 O.3       1 YZ9900     -0.2865 
      14 O5        -1.6146    1.3186    6.5059 O.2       1 YZ9900     -0.2442 
      15 C10        2.5117   -3.1271    7.8811 C.ar      1 YZ9900      0.0422 
      16 C9        -1.6536   -0.6010    7.8575 C.ar      1 YZ9900      0.1515 
      17 C8         3.0999   -2.2122    6.9999 C.ar      1 YZ9900      0.1988 
      18 H31       -5.5147   -1.2423    8.2867 H         1 YZ9900      0.0000 
      19 H32       -6.9495   -0.2015    8.1590 H         1 YZ9900      0.0000 
      20 H33       -5.8895   -0.4299    6.7512 H         1 YZ9900      0.0000 
      21 H112      -5.1045    0.9467    9.3522 H         1 YZ9900      0.0000 
      22 H113      -5.4981    1.7685    7.8266 H         1 YZ9900      0.0000 
      23 H6         0.7471   -3.6594    8.9858 H         1 YZ9900      0.0000 
      24 H5        -1.3937   -2.3672    8.9779 H         1 YZ9900      0.0000 
      25 H4         2.7943   -0.4076    5.8718 H         1 YZ9900      0.0000 
      26 HO4        4.6253   -1.6398    5.9439 H         1 YZ9900      0.0000 
      27 H10        3.0653   -3.9804    8.2442 H         1 YZ9900      0.0000 
@<TRIPOS>BOND
       1       13       17 1        
       2        7       17 ar       
       3        7       10 ar       
       4        8       10 ar       
       5        8       11 ar       
       6       14       11 2        
       7       17       15 ar       
       8       10        9 ar       
       9       11       16 ar       
      10        2        4 1        
      11        2        1 1        
      12       15        5 ar       
      13        9        5 ar       
      14        9        6 ar       
      15       16        6 ar       
      16       16       12 1        
      17        4       12 1        
      18       12        3 2        
      19       18        1 1        
      20       19        1 1        
      21       20        1 1        
      22       21        2 1        
      23       22        2 1        
      24       23        5 1        
      25       24        6 1        
      26       25        7 1        
      27       26       13 1        
      28       27       15 1        
@<TRIPOS>SUBSTRUCTURE
 1 YZ9900 10 RESIDUE 4 A YZ9900 0 ROOT

