#        scan_R01_S0068_C0000_L00001_S0001_C0000_G0010_E0001.mol2
#        Mon Jun 19 14:42:46 2017
#        Descriptor:     35    33    10     2     1     3
#        Energy - RMSD - RMSD MassCentre:     -45.1018    999.9999    999.9999
#        Receptor:       1  Surface Point:    68  Conformer:     0
#        Ligand:         1  Surface Point:     1  Conformer:     0
#        BUDE Formal Charge: 0
#        ATOM Count: 27
#        Heavy ATOM Count: 17
@<TRIPOS>MOLECULE
pdb1gcz_ligA.pdb_scan_R01_S0068_C0000_L00001_S0001_C0000_G0010_E0001
27 28 1 0 0
SMALL
GASTEIGER
@<TRIPOS>ATOM
       1 C3         2.8163    3.2519    0.8412 C.3       1 YZ9900      0.0513 
       2 C11        2.8485    1.7910    0.4940 C.3       1 YZ9900      0.2089 
       3 O1         1.3875    1.0001    3.4849 O.2       1 YZ9900     -0.2447 
       4 O2         2.8112    0.9858    1.7394 O.3       1 YZ9900     -0.4453 
       5 C6        -2.8471   -1.3832    1.5008 C.ar      1 YZ9900      0.0063 
       6 C5        -0.5816   -0.4392    2.0808 C.ar      1 YZ9900      0.0160 
       7 C4        -1.5442   -3.3242   -0.2783 C.ar      1 YZ9900      0.0796 
       8 O3         0.5641   -2.3481    0.3469 O.2       1 YZ9900     -0.4208 
       9 C2        -1.4412   -1.4143    1.3413 C.ar      1 YZ9900      0.0353 
      10 C1        -0.8259   -2.3664    0.4717 C.ar      1 YZ9900      0.1519 
      11 C7         1.3333   -1.4569    0.9299 C.ar      1 YZ9900      0.3521 
      12 C12        1.6912    0.5800    2.4100 C.2       1 YZ9900      0.3476 
      13 O4        -3.7494   -4.1093   -0.7507 O.3       1 YZ9900     -0.2865 
      14 O5         2.4803   -1.4923    0.7254 O.2       1 YZ9900     -0.2442 
      15 C10       -3.6188   -2.3279    0.7638 C.ar      1 YZ9900      0.0422 
      16 C9         0.7614   -0.4361    1.8177 C.ar      1 YZ9900      0.1515 
      17 C8        -2.9615   -3.2486   -0.0835 C.ar      1 YZ9900      0.1988 
      18 H31        1.9141    3.4703    1.4128 H         1 YZ9900      0.0000 
      19 H32        3.6935    3.5028    1.4376 H         1 YZ9900      0.0000 
      20 H33        2.8184    3.8430   -0.0745 H         1 YZ9900      0.0000 
      21 H112       3.7633    1.5683   -0.0553 H         1 YZ9900      0.0000 
      22 H113       1.9847    1.5451   -0.1237 H         1 YZ9900      0.0000 
      23 H6        -3.3189   -0.6684    2.1585 H         1 YZ9900      0.0000 
      24 H5        -1.0082    0.2428    2.8013 H         1 YZ9900      0.0000 
      25 H4        -1.0721   -4.0416   -0.9331 H         1 YZ9900      0.0000 
      26 HO4       -4.2300   -3.6388   -1.4357 H         1 YZ9900      0.0000 
      27 H10       -4.6952   -2.3401    0.8517 H         1 YZ9900      0.0000 
@<TRIPOS>BOND
       1       13       17 1        
       2        7       17 ar       
       3        7       10 ar       
       4        8       10 ar       
       5        8       11 ar       
       6       14       11 2        
       7       17       15 ar       
       8       10        9 ar       
       9       11       16 ar       
      10        2        4 1        
      11        2        1 1        
      12       15        5 ar       
      13        9        5 ar       
      14        9        6 ar       
      15       16        6 ar       
      16       16       12 1        
      17        4       12 1        
      18       12        3 2        
      19       18        1 1        
      20       19        1 1        
      21       20        1 1        
      22       21        2 1        
      23       22        2 1        
      24       23        5 1        
      25       24        6 1        
      26       25        7 1        
      27       26       13 1        
      28       27       15 1        
@<TRIPOS>SUBSTRUCTURE
 1 YZ9900 10 RESIDUE 4 A YZ9900 0 ROOT

