#        scan_R01_S0068_C0000_L00001_S0001_C0003_G0010_E0001.mol2
#        Mon Jun 19 14:42:47 2017
#        Descriptor:     27     3    20     2     2     4
#        Energy - RMSD - RMSD MassCentre:     -41.7089    999.9999    999.9999
#        Receptor:       1  Surface Point:    68  Conformer:     0
#        Ligand:         1  Surface Point:     1  Conformer:     3
#        BUDE Formal Charge: 0
#        ATOM Count: 27
#        Heavy ATOM Count: 17
@<TRIPOS>MOLECULE
pdb1gcz_ligA.pdb_scan_R01_S0068_C0000_L00001_S0001_C0003_G0010_E0001
27 28 1 0 0
SMALL
GASTEIGER
@<TRIPOS>ATOM
       1 C3         6.6577   -0.5021   -0.1080 C.3       1 YZ9900      0.0513 
       2 C11        5.6763    0.0335   -1.1465 C.3       1 YZ9900      0.2089 
       3 O1         4.2423   -1.8182    0.0480 O.2       1 YZ9900     -0.2447 
       4 O2         4.4208    0.3063   -0.5184 O.3       1 YZ9900     -0.4453 
       5 C6        -0.2115   -2.2672    2.5883 C.ar      1 YZ9900      0.0063 
       6 C5         1.7990   -1.4902    1.3149 C.ar      1 YZ9900      0.0160 
       7 C4        -1.2589    0.3144    2.5931 C.ar      1 YZ9900      0.0796 
       8 O3         0.6544    1.1178    1.3672 O.2       1 YZ9900     -0.4208 
       9 C2         0.4979   -1.2315    1.9710 C.ar      1 YZ9900      0.0353 
      10 C1        -0.0284    0.0658    1.9734 C.ar      1 YZ9900      0.1519 
      11 C7         1.8787    0.8693    0.7509 C.ar      1 YZ9900      0.3521 
      12 C12        3.7685   -0.7213    0.0658 C.2       1 YZ9900      0.3476 
      13 O4        -3.1731   -0.4261    3.8056 O.3       1 YZ9900     -0.2865 
      14 O5         2.4601    1.8045    0.2259 O.2       1 YZ9900     -0.2442 
      15 C10       -1.4416   -2.0130    3.2065 C.ar      1 YZ9900      0.0422 
      16 C9         2.4659   -0.4890    0.7286 C.ar      1 YZ9900      0.1515 
      17 C8        -1.9733   -0.7180    3.2123 C.ar      1 YZ9900      0.1988 
      18 H31        6.2680   -1.4253    0.3161 H         1 YZ9900      0.0000 
      19 H32        7.6169   -0.6970   -0.5830 H         1 YZ9900      0.0000 
      20 H33        6.7867    0.2347    0.6821 H         1 YZ9900      0.0000 
      21 H112       5.5356   -0.7081   -1.9299 H         1 YZ9900      0.0000 
      22 H113       6.0706    0.9500   -1.5803 H         1 YZ9900      0.0000 
      23 H6         0.1883   -3.2704    2.5904 H         1 YZ9900      0.0000 
      24 H5         2.1965   -2.4944    1.3185 H         1 YZ9900      0.0000 
      25 H4        -1.6609    1.3169    2.5923 H         1 YZ9900      0.0000 
      26 HO4       -3.3773    0.5192    3.7297 H         1 YZ9900      0.0000 
      27 H10       -1.9692   -2.8301    3.6759 H         1 YZ9900      0.0000 
@<TRIPOS>BOND
       1       13       17 1        
       2        7       17 ar       
       3        7       10 ar       
       4        8       10 ar       
       5        8       11 ar       
       6       14       11 2        
       7       17       15 ar       
       8       10        9 ar       
       9       11       16 ar       
      10        2        4 1        
      11        2        1 1        
      12       15        5 ar       
      13        9        5 ar       
      14        9        6 ar       
      15       16        6 ar       
      16       16       12 1        
      17        4       12 1        
      18       12        3 2        
      19       18        1 1        
      20       19        1 1        
      21       20        1 1        
      22       21        2 1        
      23       22        2 1        
      24       23        5 1        
      25       24        6 1        
      26       25        7 1        
      27       26       13 1        
      28       27       15 1        
@<TRIPOS>SUBSTRUCTURE
 1 YZ9900 10 RESIDUE 4 A YZ9900 0 ROOT

