#        1GCZ_R01_S0001_C0000_L00005_S0001_C0009_G0010_E0001.mol2
#        Tue Jun  6 09:55:36 2017
#        Descriptor:     35    30     4    12     7    13
#        Energy - RMSD - RMSD MassCentre:     -64.7506    999.9999    999.9999
#        Receptor:       1  Surface Point:     1  Conformer:     0
#        Ligand:         5  Surface Point:     1  Conformer:     9
#        BUDE Formal Charge: 0
#        ATOM Count: 55
#        Heavy ATOM Count: 30
@<TRIPOS>MOLECULE
ZINC61464195_1GCZ_R01_S0001_C0000_L00005_S0001_C0009_G0010_E0001
 55 56 0 0 0
SMALL
USER_CHARGES
@<TRIPOS>ATOM
       1 C1        -0.7861    1.4521    0.7625 C.3       1 <0>        -0.1456 
       2 C2        -1.3321    0.9579    2.0990 C.3       1 <0>        -0.0579 
       3 C3        -1.8737   -0.4593    1.9353 C.3       1 <0>        -0.1456 
       4 C4        -0.2243    0.9570    3.1249 C.ar      1 <0>        -0.0771 
       5 C5        -0.3709    1.7595    4.2625 C.ar      1 <0>        -0.0943 
       6 C6         0.5890    1.7070    5.2802 C.ar      1 <0>        -0.0923 
       7 C7         1.6928    0.8526    5.1724 C.ar      1 <0>        -0.1041 
       8 C8         1.8752    0.0857    4.0156 C.ar      1 <0>        -0.1315 
       9 C9         0.9286    0.1692    2.9877 C.ar      1 <0>        -0.0969 
      10 S1         2.8585    0.7521    6.5005 S.3       1 <0>        -0.0341 
      11 C10        2.3435   -0.5519    7.6610 C.3       1 <0>        -0.1267 
      12 C11        2.3065   -1.8789    6.9414 C.2       1 <0>         0.4864 
      13 O1         1.2629   -2.3336    6.5780 O.2       1 <0>        -0.4815 
      14 O2         3.4532   -2.5521    6.7084 O.3       1 <0>        -0.3231 
      15 C12        3.3684   -3.8046    6.0236 C.3       1 <0>         0.0526 
      16 C13        4.7530   -4.3863    5.8669 C.2       1 <0>         0.5250 
      17 O3         5.0112   -5.4935    6.3365 O.2       1 <0>        -0.5082 
      18 N1         5.6934   -3.7024    5.2216 N.am      1 <0>        -0.5981 
      19 C14        5.3848   -2.3793    4.6603 C.3       1 <0>         0.0731 
      20 C15        7.0409   -4.2702    5.0700 C.3       1 <0>         0.1010 
      21 C16        8.0706   -3.1955    5.3253 C.2       1 <0>         0.4997 
      22 O4         8.9649   -2.9940    4.5053 O.2       1 <0>        -0.5061 
      23 N2         8.0098   -2.4675    6.4368 N.am      1 <0>        -0.6702 
      24 C17        8.9746   -1.4605    6.6759 C.ar      1 <0>         0.1553 
      25 C18       10.2052   -1.4974    6.0096 C.ar      1 <0>        -0.1106 
      26 C19       11.1539   -0.4950    6.2441 C.ar      1 <0>        -0.0959 
      27 C20       10.8801    0.5366    7.1463 C.ar      1 <0>        -0.1208 
      28 C21        9.6550    0.5671    7.8234 C.ar      1 <0>        -0.0919 
      29 C22        8.7022   -0.4302    7.5840 C.ar      1 <0>        -0.0639 
      30 Cl1        7.1801   -0.3982    8.4264 Cl        1 <0>        -0.0632 
      31 H1         0.0052    0.7856    0.4260 H         1 <0>         0.0596 
      32 H2        -1.5874    1.4655    0.0267 H         1 <0>         0.0563 
      33 H3        -0.3874    2.4572    0.8837 H         1 <0>         0.0575 
      34 H4        -2.1320    1.6166    2.4305 H         1 <0>         0.0784 
      35 H5        -2.2741   -0.8059    2.8858 H         1 <0>         0.0596 
      36 H6        -1.0698   -1.1197    1.6173 H         1 <0>         0.0574 
      37 H7        -2.6630   -0.4609    1.1863 H         1 <0>         0.0563 
      38 H8        -1.2246    2.4109    4.3776 H         1 <0>         0.1285 
      39 H9         0.5177    2.3028    6.1782 H         1 <0>         0.1293 
      40 H10        2.7414   -0.5548    3.9386 H         1 <0>         0.1227 
      41 H11        1.1033   -0.4018    2.0878 H         1 <0>         0.1262 
      42 H12        3.0526   -0.6063    8.4845 H         1 <0>         0.1329 
      43 H13        1.3532   -0.3227    8.0489 H         1 <0>         0.1329 
      44 H14        2.9264   -3.6522    5.0411 H         1 <0>         0.1063 
      45 H15        2.7500   -4.4915    6.5976 H         1 <0>         0.1054 
      46 H16        5.0873   -1.7065    5.4620 H         1 <0>         0.0686 
      47 H17        6.2668   -1.9829    4.1617 H         1 <0>         0.0794 
      48 H18        4.5722   -2.4711    3.9427 H         1 <0>         0.0778 
      49 H19        7.1754   -5.0793    5.7849 H         1 <0>         0.1198 
      50 H20        7.1602   -4.6547    4.0592 H         1 <0>         0.1233 
      51 H21        7.2749   -2.6338    7.1094 H         1 <0>         0.4142 
      52 H22       10.4231   -2.2923    5.3115 H         1 <0>         0.1473 
      53 H23       12.0999   -0.5212    5.7232 H         1 <0>         0.1337 
      54 H24       11.6107    1.3118    7.3239 H         1 <0>         0.1349 
      55 H25        9.4443    1.3600    8.5258 H         1 <0>         0.1385 
@<TRIPOS>BOND
       1        1        2 1        
       2        1       31 1        
       3        1       32 1        
       4        1       33 1        
       5        2        3 1        
       6        2        4 1        
       7        2       34 1        
       8        3       35 1        
       9        3       36 1        
      10        3       37 1        
      11        4        9 ar       
      12        4        5 ar       
      13        5        6 ar       
      14        5       38 1        
      15        6        7 ar       
      16        6       39 1        
      17        7        8 ar       
      18        7       10 1        
      19        8        9 ar       
      20        8       40 1        
      21        9       41 1        
      22       10       11 1        
      23       11       12 1        
      24       11       42 1        
      25       11       43 1        
      26       12       13 2        
      27       12       14 1        
      28       14       15 1        
      29       15       16 1        
      30       15       44 1        
      31       15       45 1        
      32       16       17 2        
      33       16       18 am       
      34       18       19 1        
      35       18       20 1        
      36       19       46 1        
      37       19       47 1        
      38       19       48 1        
      39       20       21 1        
      40       20       49 1        
      41       20       50 1        
      42       21       22 2        
      43       21       23 am       
      44       23       24 1        
      45       23       51 1        
      46       24       29 ar       
      47       24       25 ar       
      48       25       26 ar       
      49       25       52 1        
      50       26       27 ar       
      51       26       53 1        
      52       27       28 ar       
      53       27       54 1        
      54       28       29 ar       
      55       28       55 1        
      56       29       30 1        

