#        scan_R01_S0068_C0000_L00001_S0001_C0003_G0010_E0001.mol2
#        Mon Jun 19 14:14:38 2017
#        Descriptor:     34     2     4     2     1     4
#        Energy - RMSD - RMSD MassCentre:     -37.0628    999.9999    999.9999
#        Receptor:       1  Surface Point:    68  Conformer:     0
#        Ligand:         1  Surface Point:     1  Conformer:     3
#        BUDE Formal Charge: 0
#        ATOM Count: 27
#        Heavy ATOM Count: 17
@<TRIPOS>MOLECULE
pdb1gcz_ligA.pdb_scan_R01_S0068_C0000_L00001_S0001_C0003_G0010_E0001
27 28 1 0 0
SMALL
GASTEIGER
@<TRIPOS>ATOM
       1 C3        -5.2070   -5.6344    2.6557 C.3       1 YZ9900      0.0513 
       2 C11       -5.3818   -4.5991    1.5483 C.3       1 YZ9900      0.2089 
       3 O1        -4.2768   -3.1679    3.4569 O.2       1 YZ9900     -0.2447 
       4 O2        -4.1585   -3.8797    1.3723 O.3       1 YZ9900     -0.4453 
       5 C6        -0.1286   -0.2165    4.2137 C.ar      1 YZ9900      0.0063 
       6 C5        -1.9236   -1.7106    3.3120 C.ar      1 YZ9900      0.0160 
       7 C4         1.2099   -0.2794    1.7711 C.ar      1 YZ9900      0.0796 
       8 O3        -0.4897   -1.7193    0.8506 O.2       1 YZ9900     -0.4208 
       9 C2        -0.6591   -0.9582    3.1529 C.ar      1 YZ9900      0.0353 
      10 C1         0.0134   -0.9899    1.9255 C.ar      1 YZ9900      0.1519 
      11 C7        -1.6802   -2.4258    1.0053 C.ar      1 YZ9900      0.3521 
      12 C12       -3.6809   -3.1765    2.4211 C.2       1 YZ9900      0.3476 
      13 O4         2.9188    1.1434    2.6304 O.3       1 YZ9900     -0.2865 
      14 O5        -2.1033   -3.0581    0.0516 O.2       1 YZ9900     -0.2442 
      15 C10        1.0682    0.4921    4.0539 C.ar      1 YZ9900      0.0422 
      16 C9        -2.4185   -2.4157    2.2879 C.ar      1 YZ9900      0.1515 
      17 C8         1.7455    0.4646    2.8291 C.ar      1 YZ9900      0.1988 
      18 H31       -4.9579   -5.1298    3.5870 H         1 YZ9900      0.0000 
      19 H32       -6.1336   -6.1909    2.7805 H         1 YZ9900      0.0000 
      20 H33       -4.4053   -6.3193    2.3877 H         1 YZ9900      0.0000 
      21 H112      -6.1738   -3.9051    1.8215 H         1 YZ9900      0.0000 
      22 H113      -5.6432   -5.1014    0.6194 H         1 YZ9900      0.0000 
      23 H6        -0.6419   -0.1874    5.1635 H         1 YZ9900      0.0000 
      24 H5        -2.4348   -1.6798    4.2628 H         1 YZ9900      0.0000 
      25 H4         1.7251   -0.3068    0.8223 H         1 YZ9900      0.0000 
      26 HO4        3.2560    0.9986    1.7324 H         1 YZ9900      0.0000 
      27 H10        1.4564    1.0570    4.8886 H         1 YZ9900      0.0000 
@<TRIPOS>BOND
       1       13       17 1        
       2        7       17 ar       
       3        7       10 ar       
       4        8       10 ar       
       5        8       11 ar       
       6       14       11 2        
       7       17       15 ar       
       8       10        9 ar       
       9       11       16 ar       
      10        2        4 1        
      11        2        1 1        
      12       15        5 ar       
      13        9        5 ar       
      14        9        6 ar       
      15       16        6 ar       
      16       16       12 1        
      17        4       12 1        
      18       12        3 2        
      19       18        1 1        
      20       19        1 1        
      21       20        1 1        
      22       21        2 1        
      23       22        2 1        
      24       23        5 1        
      25       24        6 1        
      26       25        7 1        
      27       26       13 1        
      28       27       15 1        
@<TRIPOS>SUBSTRUCTURE
 1 YZ9900 10 RESIDUE 4 A YZ9900 0 ROOT

