#        scan_R01_S0069_C0000_L00001_S0001_C0002_G0010_E0001.mol2
#        Mon Jun 19 14:42:48 2017
#        Descriptor:     25     2     1     2     1     5
#        Energy - RMSD - RMSD MassCentre:     -43.6009    999.9999    999.9999
#        Receptor:       1  Surface Point:    69  Conformer:     0
#        Ligand:         1  Surface Point:     1  Conformer:     2
#        BUDE Formal Charge: 0
#        ATOM Count: 27
#        Heavy ATOM Count: 17
@<TRIPOS>MOLECULE
pdb1gcz_ligA.pdb_scan_R01_S0069_C0000_L00001_S0001_C0002_G0010_E0001
27 28 1 0 0
SMALL
GASTEIGER
@<TRIPOS>ATOM
       1 C3        -6.8030   -1.3776    0.1327 C.3       1 YZ9900      0.0513 
       2 C11       -5.8119   -0.2205    0.2187 C.3       1 YZ9900      0.2089 
       3 O1        -3.7482    1.3510    0.6469 O.2       1 YZ9900     -0.2447 
       4 O2        -4.6180   -0.6640    0.8689 O.3       1 YZ9900     -0.4453 
       5 C6         0.9458    1.1384    2.7475 C.ar      1 YZ9900      0.0063 
       6 C5        -1.3590    0.6826    1.8827 C.ar      1 YZ9900      0.0160 
       7 C4         1.1802   -1.4930    3.6320 C.ar      1 YZ9900      0.0796 
       8 O3        -1.0339   -1.9882    2.8184 O.2       1 YZ9900     -0.4208 
       9 C2        -0.1138    0.2460    2.5530 C.ar      1 YZ9900      0.0353 
      10 C1         0.0039   -1.0763    2.9975 C.ar      1 YZ9900      0.1519 
      11 C7        -2.2038   -1.5724    2.1869 C.ar      1 YZ9900      0.3521 
      12 C12       -3.6193    0.2288    1.0367 C.2       1 YZ9900      0.3476 
      13 O4         3.3748   -1.0585    4.4553 O.3       1 YZ9900     -0.2865 
      14 O5        -3.1002   -2.3868    2.0401 O.2       1 YZ9900     -0.2442 
      15 C10        2.1199    0.7163    3.3826 C.ar      1 YZ9900      0.0422 
      16 C9        -2.3640   -0.1827    1.7040 C.ar      1 YZ9900      0.1515 
      17 C8         2.2439   -0.6045    3.8294 C.ar      1 YZ9900      0.1988 
      18 H31       -7.0530   -1.7154    1.1364 H         1 YZ9900      0.0000 
      19 H32       -7.7061   -1.0437   -0.3737 H         1 YZ9900      0.0000 
      20 H33       -6.3553   -2.1971   -0.4255 H         1 YZ9900      0.0000 
      21 H112      -6.2532    0.5944    0.7888 H         1 YZ9900      0.0000 
      22 H113      -5.5707    0.1265   -0.7838 H         1 YZ9900      0.0000 
      23 H6         0.8621    2.1599    2.4072 H         1 YZ9900      0.0000 
      24 H5        -1.4400    1.7048    1.5434 H         1 YZ9900      0.0000 
      25 H4         1.2664   -2.5141    3.9732 H         1 YZ9900      0.0000 
      26 HO4        3.2803   -1.9893    4.7113 H         1 YZ9900      0.0000 
      27 H10        2.9231    1.4250    3.5204 H         1 YZ9900      0.0000 
@<TRIPOS>BOND
       1       13       17 1        
       2        7       17 ar       
       3        7       10 ar       
       4        8       10 ar       
       5        8       11 ar       
       6       14       11 2        
       7       17       15 ar       
       8       10        9 ar       
       9       11       16 ar       
      10        2        4 1        
      11        2        1 1        
      12       15        5 ar       
      13        9        5 ar       
      14        9        6 ar       
      15       16        6 ar       
      16       16       12 1        
      17        4       12 1        
      18       12        3 2        
      19       18        1 1        
      20       19        1 1        
      21       20        1 1        
      22       21        2 1        
      23       22        2 1        
      24       23        5 1        
      25       24        6 1        
      26       25        7 1        
      27       26       13 1        
      28       27       15 1        
@<TRIPOS>SUBSTRUCTURE
 1 YZ9900 10 RESIDUE 4 A YZ9900 0 ROOT

