#        scan_R01_S0069_C0000_L00001_S0001_C0002_G0010_E0001.mol2
#        Mon Jun 19 14:14:40 2017
#        Descriptor:     19    16    33     1     3     4
#        Energy - RMSD - RMSD MassCentre:     -43.0326    999.9999    999.9999
#        Receptor:       1  Surface Point:    69  Conformer:     0
#        Ligand:         1  Surface Point:     1  Conformer:     2
#        BUDE Formal Charge: 0
#        ATOM Count: 27
#        Heavy ATOM Count: 17
@<TRIPOS>MOLECULE
pdb1gcz_ligA.pdb_scan_R01_S0069_C0000_L00001_S0001_C0002_G0010_E0001
27 28 1 0 0
SMALL
GASTEIGER
@<TRIPOS>ATOM
       1 C3         5.2732   -2.5350    0.3278 C.3       1 YZ9900      0.0513 
       2 C11        4.7475   -1.9947    1.6546 C.3       1 YZ9900      0.2089 
       3 O1         3.3578   -0.8918    3.5948 O.2       1 YZ9900     -0.2447 
       4 O2         3.4670   -1.3921    1.4491 O.3       1 YZ9900     -0.4453 
       5 C6        -1.1370    1.5173    4.2901 C.ar      1 YZ9900      0.0063 
       6 C5         0.8727    0.3197    3.3988 C.ar      1 YZ9900      0.0160 
       7 C4        -2.2847    1.5687    1.7520 C.ar      1 YZ9900      0.0796 
       8 O3        -0.3743    0.4168    0.8395 O.2       1 YZ9900     -0.4208 
       9 C2        -0.4536    0.9487    3.2100 C.ar      1 YZ9900      0.0353 
      10 C1        -1.0302    0.9746    1.9346 C.ar      1 YZ9900      0.1519 
      11 C7         0.8738   -0.1741    1.0223 C.ar      1 YZ9900      0.3521 
      12 C12        2.8411   -0.8549    2.5179 C.2       1 YZ9900      0.3476 
      13 O4        -4.1981    2.7091    2.6013 O.3       1 YZ9900     -0.2865 
      14 O5         1.4310   -0.6566    0.0502 O.2       1 YZ9900     -0.2442 
      15 C10       -2.3913    2.1102    4.1019 C.ar      1 YZ9900      0.0422 
      16 C9         1.5142   -0.2200    2.3558 C.ar      1 YZ9900      0.1515 
      17 C8        -2.9733    2.1392    2.8291 C.ar      1 YZ9900      0.1988 
      18 H31        5.3788   -1.7156   -0.3803 H         1 YZ9900      0.0000 
      19 H32        6.2414   -3.0051    0.4866 H         1 YZ9900      0.0000 
      20 H33        4.5735   -3.2685   -0.0671 H         1 YZ9900      0.0000 
      21 H112       5.4394   -1.2507    2.0437 H         1 YZ9900      0.0000 
      22 H113       4.6532   -2.8111    2.3675 H         1 YZ9900      0.0000 
      23 H6        -0.6984    1.5010    5.2769 H         1 YZ9900      0.0000 
      24 H5         1.3090    0.3048    4.3867 H         1 YZ9900      0.0000 
      25 H4        -2.7255    1.5862    0.7662 H         1 YZ9900      0.0000 
      26 HO4       -4.4372    2.6551    1.6628 H         1 YZ9900      0.0000 
      27 H10       -2.8980    2.5420    4.9523 H         1 YZ9900      0.0000 
@<TRIPOS>BOND
       1       13       17 1        
       2        7       17 ar       
       3        7       10 ar       
       4        8       10 ar       
       5        8       11 ar       
       6       14       11 2        
       7       17       15 ar       
       8       10        9 ar       
       9       11       16 ar       
      10        2        4 1        
      11        2        1 1        
      12       15        5 ar       
      13        9        5 ar       
      14        9        6 ar       
      15       16        6 ar       
      16       16       12 1        
      17        4       12 1        
      18       12        3 2        
      19       18        1 1        
      20       19        1 1        
      21       20        1 1        
      22       21        2 1        
      23       22        2 1        
      24       23        5 1        
      25       24        6 1        
      26       25        7 1        
      27       26       13 1        
      28       27       15 1        
@<TRIPOS>SUBSTRUCTURE
 1 YZ9900 10 RESIDUE 4 A YZ9900 0 ROOT

