#        scan_R01_S0069_C0000_L00001_S0001_C0003_G0010_E0001.mol2
#        Mon Jun 19 14:42:49 2017
#        Descriptor:     35    36    36     2     2     4
#        Energy - RMSD - RMSD MassCentre:     -43.9632    999.9999    999.9999
#        Receptor:       1  Surface Point:    69  Conformer:     0
#        Ligand:         1  Surface Point:     1  Conformer:     3
#        BUDE Formal Charge: 0
#        ATOM Count: 27
#        Heavy ATOM Count: 17
@<TRIPOS>MOLECULE
pdb1gcz_ligA.pdb_scan_R01_S0069_C0000_L00001_S0001_C0003_G0010_E0001
27 28 1 0 0
SMALL
GASTEIGER
@<TRIPOS>ATOM
       1 C3        -6.3233   -0.7209    4.9184 C.3       1 YZ9900      0.0513 
       2 C11       -6.2025    0.3831    3.8718 C.3       1 YZ9900      0.2089 
       3 O1        -3.8898    0.5567    5.1101 O.2       1 YZ9900     -0.2447 
       4 O2        -4.9476    0.2633    3.1967 O.3       1 YZ9900     -0.4453 
       5 C6         1.1378    0.3353    4.0307 C.ar      1 YZ9900      0.0063 
       6 C5        -1.3652    0.3529    3.9845 C.ar      1 YZ9900      0.0160 
       7 C4         1.2279   -0.1023    1.2808 C.ar      1 YZ9900      0.0796 
       8 O3        -1.1801   -0.0949    1.1774 O.2       1 YZ9900     -0.4208 
       9 C2        -0.0549    0.2323    3.3070 C.ar      1 YZ9900      0.0353 
      10 C1        -0.0097    0.0123    1.9252 C.ar      1 YZ9900      0.1519 
      11 C7        -2.4109    0.0194    1.8196 C.ar      1 YZ9900      0.3521 
      12 C12       -3.8203    0.3689    3.9320 C.2       1 YZ9900      0.3476 
      13 O4         3.6113   -0.1189    1.3255 O.3       1 YZ9900     -0.2865 
      14 O5        -3.4236   -0.0775    1.1462 O.2       1 YZ9900     -0.2442 
      15 C10        2.3727    0.2199    3.3813 C.ar      1 YZ9900      0.0422 
      16 C9        -2.4976    0.2519    3.2786 C.ar      1 YZ9900      0.1515 
      17 C8         2.4247   -0.0000    1.9998 C.ar      1 YZ9900      0.1988 
      18 H31       -5.5207   -0.6193    5.6460 H         1 YZ9900      0.0000 
      19 H32       -7.2837   -0.6379    5.4229 H         1 YZ9900      0.0000 
      20 H33       -6.2515   -1.6910    4.4313 H         1 YZ9900      0.0000 
      21 H112      -6.2600    1.3539    4.3594 H         1 YZ9900      0.0000 
      22 H113      -7.0118    0.2901    3.1507 H         1 YZ9900      0.0000 
      23 H6         1.1107    0.5050    5.0970 H         1 YZ9900      0.0000 
      24 H5        -1.3894    0.5225    5.0508 H         1 YZ9900      0.0000 
      25 H4         1.2577   -0.2720    0.2146 H         1 YZ9900      0.0000 
      26 HO4        3.4595   -0.2853    0.3820 H         1 YZ9900      0.0000 
      27 H10        3.2788    0.3033    3.9631 H         1 YZ9900      0.0000 
@<TRIPOS>BOND
       1       13       17 1        
       2        7       17 ar       
       3        7       10 ar       
       4        8       10 ar       
       5        8       11 ar       
       6       14       11 2        
       7       17       15 ar       
       8       10        9 ar       
       9       11       16 ar       
      10        2        4 1        
      11        2        1 1        
      12       15        5 ar       
      13        9        5 ar       
      14        9        6 ar       
      15       16        6 ar       
      16       16       12 1        
      17        4       12 1        
      18       12        3 2        
      19       18        1 1        
      20       19        1 1        
      21       20        1 1        
      22       21        2 1        
      23       22        2 1        
      24       23        5 1        
      25       24        6 1        
      26       25        7 1        
      27       26       13 1        
      28       27       15 1        
@<TRIPOS>SUBSTRUCTURE
 1 YZ9900 10 RESIDUE 4 A YZ9900 0 ROOT

