#        scan_R01_S0070_C0000_L00001_S0001_C0000_G0010_E0001.mol2
#        Mon Jun 19 14:14:41 2017
#        Descriptor:      2    34     6     3     3     4
#        Energy - RMSD - RMSD MassCentre:     -44.8358    999.9999    999.9999
#        Receptor:       1  Surface Point:    70  Conformer:     0
#        Ligand:         1  Surface Point:     1  Conformer:     0
#        BUDE Formal Charge: 0
#        ATOM Count: 27
#        Heavy ATOM Count: 17
@<TRIPOS>MOLECULE
pdb1gcz_ligA.pdb_scan_R01_S0070_C0000_L00001_S0001_C0000_G0010_E0001
27 28 1 0 0
SMALL
GASTEIGER
@<TRIPOS>ATOM
       1 C3         5.8704    1.6414    0.6203 C.3       1 YZ9900      0.0513 
       2 C11        4.6224    0.8871    0.2606 C.3       1 YZ9900      0.2089 
       3 O1         4.0113    0.2311    3.5624 O.2       1 YZ9900     -0.2447 
       4 O2         4.2907   -0.0668    1.3472 O.3       1 YZ9900     -0.4453 
       5 C6        -0.6914    2.5499    3.8002 C.ar      1 YZ9900      0.0063 
       6 C5         1.4298    1.3051    3.2422 C.ar      1 YZ9900      0.0160 
       7 C4        -2.0311    1.2005    1.5609 C.ar      1 YZ9900      0.0796 
       8 O3         0.0441    0.0659    1.1192 O.2       1 YZ9900     -0.4208 
       9 C2        -0.0094    1.6179    2.9822 C.ar      1 YZ9900      0.0353 
      10 C1        -0.6784    0.9713    1.8979 C.ar      1 YZ9900      0.1519 
      11 C7         1.3256   -0.1712    1.2835 C.ar      1 YZ9900      0.3521 
      12 C12        3.5478    0.2007    2.4632 C.2       1 YZ9900      0.3476 
      13 O4        -3.9637    2.4550    2.1885 O.3       1 YZ9900     -0.2865 
      14 O5         1.8540   -0.9078    0.5507 O.2       1 YZ9900     -0.2442 
      15 C10       -2.0586    2.8188    3.5007 C.ar      1 YZ9900      0.0422 
      16 C9         2.0779    0.4788    2.3646 C.ar      1 YZ9900      0.1515 
      17 C8        -2.6740    2.1528    2.4166 C.ar      1 YZ9900      0.1988 
      18 H31        5.7178    2.1695    1.5617 H         1 YZ9900      0.0000 
      19 H32        6.6995    0.9418    0.7267 H         1 YZ9900      0.0000 
      20 H33        6.1000    2.3600   -0.1664 H         1 YZ9900      0.0000 
      21 H112       4.7841    0.3387   -0.6674 H         1 YZ9900      0.0000 
      22 H113       3.7987    1.5888    0.1292 H         1 YZ9900      0.0000 
      23 H6        -0.1930    3.0403    4.6232 H         1 YZ9900      0.0000 
      24 H5         1.9427    1.7193    4.0975 H         1 YZ9900      0.0000 
      25 H4        -2.5305    0.7071    0.7403 H         1 YZ9900      0.0000 
      26 HO4       -4.0264    3.3445    1.8331 H         1 YZ9900      0.0000 
      27 H10       -2.6188    3.5246    4.0962 H         1 YZ9900      0.0000 
@<TRIPOS>BOND
       1       13       17 1        
       2        7       17 ar       
       3        7       10 ar       
       4        8       10 ar       
       5        8       11 ar       
       6       14       11 2        
       7       17       15 ar       
       8       10        9 ar       
       9       11       16 ar       
      10        2        4 1        
      11        2        1 1        
      12       15        5 ar       
      13        9        5 ar       
      14        9        6 ar       
      15       16        6 ar       
      16       16       12 1        
      17        4       12 1        
      18       12        3 2        
      19       18        1 1        
      20       19        1 1        
      21       20        1 1        
      22       21        2 1        
      23       22        2 1        
      24       23        5 1        
      25       24        6 1        
      26       25        7 1        
      27       26       13 1        
      28       27       15 1        
@<TRIPOS>SUBSTRUCTURE
 1 YZ9900 10 RESIDUE 4 A YZ9900 0 ROOT

