#        1GCZ_R01_S0001_C0000_L00005_S0001_C0009_G0010_E0001.mol2
#        Tue Jun  6 14:05:51 2017
#        Descriptor:      1    28     6    12     7    12
#        Energy - RMSD - RMSD MassCentre:     -63.7152    999.9999    999.9999
#        Receptor:       1  Surface Point:     1  Conformer:     0
#        Ligand:         5  Surface Point:     1  Conformer:     9
#        BUDE Formal Charge: 0
#        ATOM Count: 55
#        Heavy ATOM Count: 30
@<TRIPOS>MOLECULE
ZINC61464195_1GCZ_R01_S0001_C0000_L00005_S0001_C0009_G0010_E0001
 55 56 0 0 0
SMALL
USER_CHARGES
@<TRIPOS>ATOM
       1 C1        -1.9515    0.6912    1.0683 C.3       1 <0>        -0.1456 
       2 C2        -2.0428    0.4602    2.5740 C.3       1 <0>        -0.0579 
       3 C3        -2.5455   -0.9552    2.8427 C.3       1 <0>        -0.1456 
       4 C4        -0.6764    0.6340    3.1926 C.ar      1 <0>        -0.0771 
       5 C5        -0.5052    1.6350    4.1561 C.ar      1 <0>        -0.0943 
       6 C6         0.7203    1.7586    4.8217 C.ar      1 <0>        -0.0923 
       7 C7         1.7754    0.8839    4.5359 C.ar      1 <0>        -0.1041 
       8 C8         1.6308   -0.0862    3.5371 C.ar      1 <0>        -0.1315 
       9 C9         0.4136   -0.1813    2.8522 C.ar      1 <0>        -0.0969 
      10 S1         3.2932    1.0149    5.4371 S.3       1 <0>        -0.0341 
      11 C10        3.2137   -0.0448    6.9147 C.3       1 <0>        -0.1267 
      12 C11        3.0179   -1.4814    6.4926 C.2       1 <0>         0.4864 
      13 O1         1.9343   -1.9811    6.5555 O.2       1 <0>        -0.4815 
      14 O2         4.0679   -2.2017    6.0440 O.3       1 <0>        -0.3231 
      15 C12        3.8339   -3.5579    5.6559 C.3       1 <0>         0.0526 
      16 C13        5.1294   -4.1775    5.1890 C.2       1 <0>         0.5250 
      17 O3         5.5667   -5.1821    5.7480 O.2       1 <0>        -0.5082 
      18 N1         5.7978   -3.6377    4.1739 N.am      1 <0>        -0.5981 
      19 C14        5.2751   -2.4371    3.5058 C.3       1 <0>         0.0731 
      20 C15        7.0589   -4.2421    3.7207 C.3       1 <0>         0.1010 
      21 C16        8.0691   -3.1529    3.4494 C.2       1 <0>         0.4997 
      22 O4         8.6617   -3.1188    2.3722 O.2       1 <0>        -0.5061 
      23 N2         8.3173   -2.2311    4.3755 N.am      1 <0>        -0.6702 
      24 C17        9.2639   -1.2105    4.1212 C.ar      1 <0>         0.1553 
      25 C18       10.2337   -1.3869    3.1273 C.ar      1 <0>        -0.1106 
      26 C19       11.1638   -0.3715    2.8744 C.ar      1 <0>        -0.0959 
      27 C20       11.1323    0.8128    3.6157 C.ar      1 <0>        -0.1208 
      28 C21       10.1712    0.9849    4.6192 C.ar      1 <0>        -0.0919 
      29 C22        9.2356   -0.0264    4.8678 C.ar      1 <0>        -0.0639 
      30 Cl1        8.0422    0.1817    6.1167 Cl        1 <0>        -0.0632 
      31 H1        -1.2717   -0.0368    0.6310 H         1 <0>         0.0596 
      32 H2        -2.9386    0.5792    0.6245 H         1 <0>         0.0563 
      33 H3        -1.5795    1.6958    0.8780 H         1 <0>         0.0575 
      34 H4        -2.7320    1.1798    3.0108 H         1 <0>         0.0784 
      35 H5        -2.6221   -1.1145    3.9164 H         1 <0>         0.0596 
      36 H6        -1.8482   -1.6740    2.4176 H         1 <0>         0.0574 
      37 H7        -3.5244   -1.0846    2.3856 H         1 <0>         0.0563 
      38 H8        -1.3111    2.3080    4.4084 H         1 <0>         0.1285 
      39 H9         0.8994    2.5110    5.5753 H         1 <0>         0.1293 
      40 H10        2.4598   -0.7417    3.3145 H         1 <0>         0.1227 
      41 H11        0.3312   -0.9112    2.0606 H         1 <0>         0.1262 
      42 H12        4.1414    0.0444    7.4761 H         1 <0>         0.1329 
      43 H13        2.3792    0.2658    7.5399 H         1 <0>         0.1329 
      44 H14        3.1077   -3.5838    4.8460 H         1 <0>         0.1063 
      45 H15        3.4503   -4.1183    6.5059 H         1 <0>         0.1054 
      46 H16        5.2064   -1.6237    4.2251 H         1 <0>         0.0686 
      47 H17        5.9452   -2.1519    2.6976 H         1 <0>         0.0794 
      48 H18        4.2875   -2.6489    3.1013 H         1 <0>         0.0778 
      49 H19        7.4401   -4.9068    4.4932 H         1 <0>         0.1198 
      50 H20        6.8818   -4.8086    2.8088 H         1 <0>         0.1233 
      51 H21        7.8300   -2.2601    5.2597 H         1 <0>         0.4142 
      52 H22       10.2637   -2.3001    2.5512 H         1 <0>         0.1473 
      53 H23       11.9066   -0.5066    2.1018 H         1 <0>         0.1337 
      54 H24       11.8474    1.5974    3.4176 H         1 <0>         0.1349 
      55 H25       10.1495    1.8968    5.1973 H         1 <0>         0.1385 
@<TRIPOS>BOND
       1        1        2 1        
       2        1       31 1        
       3        1       32 1        
       4        1       33 1        
       5        2        3 1        
       6        2        4 1        
       7        2       34 1        
       8        3       35 1        
       9        3       36 1        
      10        3       37 1        
      11        4        9 ar       
      12        4        5 ar       
      13        5        6 ar       
      14        5       38 1        
      15        6        7 ar       
      16        6       39 1        
      17        7        8 ar       
      18        7       10 1        
      19        8        9 ar       
      20        8       40 1        
      21        9       41 1        
      22       10       11 1        
      23       11       12 1        
      24       11       42 1        
      25       11       43 1        
      26       12       13 2        
      27       12       14 1        
      28       14       15 1        
      29       15       16 1        
      30       15       44 1        
      31       15       45 1        
      32       16       17 2        
      33       16       18 am       
      34       18       19 1        
      35       18       20 1        
      36       19       46 1        
      37       19       47 1        
      38       19       48 1        
      39       20       21 1        
      40       20       49 1        
      41       20       50 1        
      42       21       22 2        
      43       21       23 am       
      44       23       24 1        
      45       23       51 1        
      46       24       29 ar       
      47       24       25 ar       
      48       25       26 ar       
      49       25       52 1        
      50       26       27 ar       
      51       26       53 1        
      52       27       28 ar       
      53       27       54 1        
      54       28       29 ar       
      55       28       55 1        
      56       29       30 1        

