#        scan_R01_S0070_C0000_L00001_S0001_C0002_G0010_E0001.mol2
#        Mon Jun 19 14:14:41 2017
#        Descriptor:     34    17     2     3     1     5
#        Energy - RMSD - RMSD MassCentre:     -41.7358    999.9999    999.9999
#        Receptor:       1  Surface Point:    70  Conformer:     0
#        Ligand:         1  Surface Point:     1  Conformer:     2
#        BUDE Formal Charge: 0
#        ATOM Count: 27
#        Heavy ATOM Count: 17
@<TRIPOS>MOLECULE
pdb1gcz_ligA.pdb_scan_R01_S0070_C0000_L00001_S0001_C0002_G0010_E0001
27 28 1 0 0
SMALL
GASTEIGER
@<TRIPOS>ATOM
       1 C3         7.5284    1.7811    0.9286 C.3       1 YZ9900      0.0513 
       2 C11        6.2098    1.6435    0.1731 C.3       1 YZ9900      0.2089 
       3 O1         3.7435    1.1567   -0.5965 O.2       1 YZ9900     -0.2447 
       4 O2         5.2340    1.0381    1.0253 O.3       1 YZ9900     -0.4453 
       5 C6        -0.6033   -0.8569    1.2854 C.ar      1 YZ9900      0.0063 
       6 C5         1.7178   -0.0022    0.8986 C.ar      1 YZ9900      0.0160 
       7 C4         0.0535   -1.5846    3.8932 C.ar      1 YZ9900      0.0796 
       8 O3         2.3024   -0.7774    3.5767 O.2       1 YZ9900     -0.4208 
       9 C2         0.6915   -0.6273    1.7626 C.ar      1 YZ9900      0.0353 
      10 C1         1.0216   -0.9930    3.0729 C.ar      1 YZ9900      0.1519 
      11 C7         3.2648   -0.1887    2.7596 C.ar      1 YZ9900      0.3521 
      12 C12        3.9964    0.8342    0.5260 C.2       1 YZ9900      0.3476 
      13 O4        -2.1568   -2.3983    4.2609 O.3       1 YZ9900     -0.2865 
      14 O5         4.3801   -0.0088    3.2203 O.2       1 YZ9900     -0.2442 
      15 C10       -1.5676   -1.4488    2.1100 C.ar      1 YZ9900      0.0422 
      16 C9         2.9522    0.2109    1.3694 C.ar      1 YZ9900      0.1515 
      17 C8        -1.2438   -1.8168    3.4212 C.ar      1 YZ9900      0.1988 
      18 H31        7.8813    0.7949    1.2234 H         1 YZ9900      0.0000 
      19 H32        8.2669    2.2537    0.2846 H         1 YZ9900      0.0000 
      20 H33        7.3754    2.3923    1.8155 H         1 YZ9900      0.0000 
      21 H112       6.3582    1.0208   -0.7067 H         1 YZ9900      0.0000 
      22 H113       5.8621    2.6279   -0.1332 H         1 YZ9900      0.0000 
      23 H6        -0.8652   -0.5774    0.2756 H         1 YZ9900      0.0000 
      24 H5         1.4531    0.2763   -0.1107 H         1 YZ9900      0.0000 
      25 H4         0.3129   -1.8650    4.9035 H         1 YZ9900      0.0000 
      26 HO4       -1.7574   -2.6016    5.1212 H         1 YZ9900      0.0000 
      27 H10       -2.5599   -1.6151    1.7174 H         1 YZ9900      0.0000 
@<TRIPOS>BOND
       1       13       17 1        
       2        7       17 ar       
       3        7       10 ar       
       4        8       10 ar       
       5        8       11 ar       
       6       14       11 2        
       7       17       15 ar       
       8       10        9 ar       
       9       11       16 ar       
      10        2        4 1        
      11        2        1 1        
      12       15        5 ar       
      13        9        5 ar       
      14        9        6 ar       
      15       16        6 ar       
      16       16       12 1        
      17        4       12 1        
      18       12        3 2        
      19       18        1 1        
      20       19        1 1        
      21       20        1 1        
      22       21        2 1        
      23       22        2 1        
      24       23        5 1        
      25       24        6 1        
      26       25        7 1        
      27       26       13 1        
      28       27       15 1        
@<TRIPOS>SUBSTRUCTURE
 1 YZ9900 10 RESIDUE 4 A YZ9900 0 ROOT

