#        scan_R01_S0070_C0000_L00001_S0001_C0003_G0010_E0001.mol2
#        Mon Jun 19 14:42:50 2017
#        Descriptor:     36     3    20     2     1     4
#        Energy - RMSD - RMSD MassCentre:     -45.5787    999.9999    999.9999
#        Receptor:       1  Surface Point:    70  Conformer:     0
#        Ligand:         1  Surface Point:     1  Conformer:     3
#        BUDE Formal Charge: 0
#        ATOM Count: 27
#        Heavy ATOM Count: 17
@<TRIPOS>MOLECULE
pdb1gcz_ligA.pdb_scan_R01_S0070_C0000_L00001_S0001_C0003_G0010_E0001
27 28 1 0 0
SMALL
GASTEIGER
@<TRIPOS>ATOM
       1 C3         6.0213    2.4864    1.2190 C.3       1 YZ9900      0.0513 
       2 C11        5.9628    1.1147    0.5528 C.3       1 YZ9900      0.2089 
       3 O1         4.6528    0.6848    2.7913 O.2       1 YZ9900     -0.2447 
       4 O2         4.6191    0.6264    0.5864 O.3       1 YZ9900     -0.4453 
       5 C6         0.0334   -0.9640    4.3513 C.ar      1 YZ9900      0.0063 
       6 C5         2.0590   -0.2537    3.0630 C.ar      1 YZ9900      0.0160 
       7 C4        -1.3321   -1.5105    1.9852 C.ar      1 YZ9900      0.0796 
       8 O3         0.5889   -0.8382    0.6941 O.2       1 YZ9900     -0.4208 
       9 C2         0.6690   -0.7584    3.1222 C.ar      1 YZ9900      0.0353 
      10 C1        -0.0171   -1.0329    1.9332 C.ar      1 YZ9900      0.1519 
      11 C7         1.8973   -0.3631    0.6436 C.ar      1 YZ9900      0.3521 
      12 C12        4.0425    0.4418    1.7931 C.2       1 YZ9900      0.3476 
      13 O4        -3.2607   -2.1868    3.2125 O.3       1 YZ9900     -0.2865 
      14 O5         2.4093   -0.1996   -0.4516 O.2       1 YZ9900     -0.2442 
      15 C10       -1.2818   -1.4417    4.3975 C.ar      1 YZ9900      0.0422 
      16 C9         2.6536   -0.0619    1.8795 C.ar      1 YZ9900      0.1515 
      17 C8        -1.9733   -1.7182    3.2122 C.ar      1 YZ9900      0.1988 
      18 H31        5.7041    2.3989    2.2561 H         1 YZ9900      0.0000 
      19 H32        7.0411    2.8638    1.1815 H         1 YZ9900      0.0000 
      20 H33        5.3605    3.1725    0.6935 H         1 YZ9900      0.0000 
      21 H112       6.6125    0.4239    1.0859 H         1 YZ9900      0.0000 
      22 H113       6.2917    1.1986   -0.4809 H         1 YZ9900      0.0000 
      23 H6         0.5565   -0.7544    5.2726 H         1 YZ9900      0.0000 
      24 H5         2.5798   -0.0449    3.9858 H         1 YZ9900      0.0000 
      25 H4        -1.8574   -1.7209    1.0652 H         1 YZ9900      0.0000 
      26 HO4       -3.5873   -2.3057    2.3069 H         1 YZ9900      0.0000 
      27 H10       -1.7496   -1.5919    5.3592 H         1 YZ9900      0.0000 
@<TRIPOS>BOND
       1       13       17 1        
       2        7       17 ar       
       3        7       10 ar       
       4        8       10 ar       
       5        8       11 ar       
       6       14       11 2        
       7       17       15 ar       
       8       10        9 ar       
       9       11       16 ar       
      10        2        4 1        
      11        2        1 1        
      12       15        5 ar       
      13        9        5 ar       
      14        9        6 ar       
      15       16        6 ar       
      16       16       12 1        
      17        4       12 1        
      18       12        3 2        
      19       18        1 1        
      20       19        1 1        
      21       20        1 1        
      22       21        2 1        
      23       22        2 1        
      24       23        5 1        
      25       24        6 1        
      26       25        7 1        
      27       26       13 1        
      28       27       15 1        
@<TRIPOS>SUBSTRUCTURE
 1 YZ9900 10 RESIDUE 4 A YZ9900 0 ROOT

