#        scan_R01_S0070_C0000_L00001_S0001_C0003_G0010_E0001.mol2
#        Mon Jun 19 14:14:42 2017
#        Descriptor:      1     3    20     2     1     4
#        Energy - RMSD - RMSD MassCentre:     -40.8228    999.9999    999.9999
#        Receptor:       1  Surface Point:    70  Conformer:     0
#        Ligand:         1  Surface Point:     1  Conformer:     3
#        BUDE Formal Charge: 0
#        ATOM Count: 27
#        Heavy ATOM Count: 17
@<TRIPOS>MOLECULE
pdb1gcz_ligA.pdb_scan_R01_S0070_C0000_L00001_S0001_C0003_G0010_E0001
27 28 1 0 0
SMALL
GASTEIGER
@<TRIPOS>ATOM
       1 C3         5.7455    2.8743    0.9998 C.3       1 YZ9900      0.0513 
       2 C11        5.8397    1.4237    0.5355 C.3       1 YZ9900      0.2089 
       3 O1         4.4432    1.1925    2.7510 O.2       1 YZ9900     -0.2447 
       4 O2         4.5416    0.8253    0.5780 O.3       1 YZ9900     -0.4453 
       5 C6        -0.1052   -0.6345    4.3208 C.ar      1 YZ9900      0.0063 
       6 C5         1.9251    0.0701    3.0369 C.ar      1 YZ9900      0.0160 
       7 C4        -1.2820   -1.6260    1.9984 C.ar      1 YZ9900      0.0796 
       8 O3         0.6477   -0.9688    0.7124 O.2       1 YZ9900     -0.4208 
       9 C2         0.5808   -0.5452    3.1050 C.ar      1 YZ9900      0.0353 
      10 C1        -0.0104   -1.0433    1.9379 C.ar      1 YZ9900      0.1519 
      11 C7         1.9128   -0.3888    0.6535 C.ar      1 YZ9900      0.3521 
      12 C12        3.9138    0.7588    1.7714 C.2       1 YZ9900      0.3476 
      13 O4        -3.2151   -2.2968    3.2215 O.3       1 YZ9900     -0.2865 
      14 O5         2.4716   -0.3336   -0.4296 O.2       1 YZ9900     -0.2442 
      15 C10       -1.3766   -1.2182    4.3756 C.ar      1 YZ9900      0.0422 
      16 C9         2.5689    0.1484    1.8663 C.ar      1 YZ9900      0.1515 
      17 C8        -1.9733   -1.7183    3.2122 C.ar      1 YZ9900      0.1988 
      18 H31        5.3774    2.9036    2.0233 H         1 YZ9900      0.0000 
      19 H32        6.7308    3.3335    0.9547 H         1 YZ9900      0.0000 
      20 H33        5.0613    3.4181    0.3519 H         1 YZ9900      0.0000 
      21 H112       6.5128    0.8753    1.1911 H         1 YZ9900      0.0000 
      22 H113       6.2195    1.3924   -0.4835 H         1 YZ9900      0.0000 
      23 H6         0.3446   -0.2523    5.2252 H         1 YZ9900      0.0000 
      24 H5         2.3727    0.4515    3.9428 H         1 YZ9900      0.0000 
      25 H4        -1.7340   -2.0090    1.0953 H         1 YZ9900      0.0000 
      26 HO4       -3.4780   -2.5695    2.3285 H         1 YZ9900      0.0000 
      27 H10       -1.8850   -1.2749    5.3268 H         1 YZ9900      0.0000 
@<TRIPOS>BOND
       1       13       17 1        
       2        7       17 ar       
       3        7       10 ar       
       4        8       10 ar       
       5        8       11 ar       
       6       14       11 2        
       7       17       15 ar       
       8       10        9 ar       
       9       11       16 ar       
      10        2        4 1        
      11        2        1 1        
      12       15        5 ar       
      13        9        5 ar       
      14        9        6 ar       
      15       16        6 ar       
      16       16       12 1        
      17        4       12 1        
      18       12        3 2        
      19       18        1 1        
      20       19        1 1        
      21       20        1 1        
      22       21        2 1        
      23       22        2 1        
      24       23        5 1        
      25       24        6 1        
      26       25        7 1        
      27       26       13 1        
      28       27       15 1        
@<TRIPOS>SUBSTRUCTURE
 1 YZ9900 10 RESIDUE 4 A YZ9900 0 ROOT

