#        scan_R01_S0071_C0000_L00001_S0001_C0000_G0010_E0001.mol2
#        Mon Jun 19 14:42:51 2017
#        Descriptor:      4    33    19     3     3     3
#        Energy - RMSD - RMSD MassCentre:     -53.1169    999.9999    999.9999
#        Receptor:       1  Surface Point:    71  Conformer:     0
#        Ligand:         1  Surface Point:     1  Conformer:     0
#        BUDE Formal Charge: 0
#        ATOM Count: 27
#        Heavy ATOM Count: 17
@<TRIPOS>MOLECULE
pdb1gcz_ligA.pdb_scan_R01_S0071_C0000_L00001_S0001_C0000_G0010_E0001
27 28 1 0 0
SMALL
GASTEIGER
@<TRIPOS>ATOM
       1 C3        -1.6360    4.1588   -2.0181 C.3       1 YZ9900      0.0513 
       2 C11       -0.3164    3.4509   -1.9016 C.3       1 YZ9900      0.2089 
       3 O1        -0.1181    4.2678    1.4149 O.2       1 YZ9900     -0.2447 
       4 O2         0.4405    4.0023   -0.7511 O.3       1 YZ9900     -0.4453 
       5 C6         0.1436   -0.6416    3.2528 C.ar      1 YZ9900      0.0063 
       6 C5         0.2845    1.5457    2.0055 C.ar      1 YZ9900      0.0160 
       7 C4         2.3881   -1.6583    1.6533 C.ar      1 YZ9900      0.0796 
       8 O3         2.4345    0.4683    0.5291 O.2       1 YZ9900     -0.4208 
       9 C2         0.7686    0.1544    2.2636 C.ar      1 YZ9900      0.0353 
      10 C1         1.8595   -0.3577    1.4962 C.ar      1 YZ9900      0.1519 
      11 C7         1.9815    1.6660    0.2356 C.ar      1 YZ9900      0.3521 
      12 C12        0.3514    3.5926    0.5501 C.2       1 YZ9900      0.3476 
      13 O4         2.1336   -3.6796    2.8991 O.3       1 YZ9900     -0.2865 
      14 O5         2.4978    2.2615   -0.6231 O.2       1 YZ9900     -0.2442 
      15 C10        0.6379   -1.9638    3.4494 C.ar      1 YZ9900      0.0422 
      16 C9         0.8479    2.2419    0.9707 C.ar      1 YZ9900      0.1515 
      17 C8         1.7194   -2.4228    2.6636 C.ar      1 YZ9900      0.1988 
      18 H31       -2.1988    4.0340   -1.0929 H         1 YZ9900      0.0000 
      19 H32       -1.4641    5.2200   -2.1981 H         1 YZ9900      0.0000 
      20 H33       -2.2027    3.7366   -2.8479 H         1 YZ9900      0.0000 
      21 H112       0.2565    3.5977   -2.8173 H         1 YZ9900      0.0000 
      22 H113      -0.4878    2.3856   -1.7469 H         1 YZ9900      0.0000 
      23 H6        -0.6796   -0.2603    3.8386 H         1 YZ9900      0.0000 
      24 H5        -0.4872    1.9881    2.6179 H         1 YZ9900      0.0000 
      25 H4         3.2139   -2.0383    1.0701 H         1 YZ9900      0.0000 
      26 HO4        1.4774   -4.2998    2.5728 H         1 YZ9900      0.0000 
      27 H10        0.1906   -2.6087    4.1914 H         1 YZ9900      0.0000 
@<TRIPOS>BOND
       1       13       17 1        
       2        7       17 ar       
       3        7       10 ar       
       4        8       10 ar       
       5        8       11 ar       
       6       14       11 2        
       7       17       15 ar       
       8       10        9 ar       
       9       11       16 ar       
      10        2        4 1        
      11        2        1 1        
      12       15        5 ar       
      13        9        5 ar       
      14        9        6 ar       
      15       16        6 ar       
      16       16       12 1        
      17        4       12 1        
      18       12        3 2        
      19       18        1 1        
      20       19        1 1        
      21       20        1 1        
      22       21        2 1        
      23       22        2 1        
      24       23        5 1        
      25       24        6 1        
      26       25        7 1        
      27       26       13 1        
      28       27       15 1        
@<TRIPOS>SUBSTRUCTURE
 1 YZ9900 10 RESIDUE 4 A YZ9900 0 ROOT

