#        scan_R01_S0071_C0000_L00001_S0001_C0002_G0010_E0001.mol2
#        Mon Jun 19 14:42:51 2017
#        Descriptor:      6     5    28     3     3     4
#        Energy - RMSD - RMSD MassCentre:     -49.6672    999.9999    999.9999
#        Receptor:       1  Surface Point:    71  Conformer:     0
#        Ligand:         1  Surface Point:     1  Conformer:     2
#        BUDE Formal Charge: 0
#        ATOM Count: 27
#        Heavy ATOM Count: 17
@<TRIPOS>MOLECULE
pdb1gcz_ligA.pdb_scan_R01_S0071_C0000_L00001_S0001_C0002_G0010_E0001
27 28 1 0 0
SMALL
GASTEIGER
@<TRIPOS>ATOM
       1 C3        -0.6076    5.9068   -3.2899 C.3       1 YZ9900      0.0513 
       2 C11       -1.4285    5.3982   -2.1085 C.3       1 YZ9900      0.2089 
       3 O1        -2.3359    4.1850    0.0402 O.2       1 YZ9900     -0.2447 
       4 O2        -0.6583    4.4477   -1.3680 O.3       1 YZ9900     -0.4453 
       5 C6        -0.7736    0.7300    3.5206 C.ar      1 YZ9900      0.0063 
       6 C5        -1.0044    2.3235    1.6036 C.ar      1 YZ9900      0.0160 
       7 C4         1.8136    0.0759    2.7207 C.ar      1 YZ9900      0.0796 
       8 O3         1.6469    1.5961    0.8578 O.2       1 YZ9900     -0.4208 
       9 C2        -0.2259    1.3372    2.3856 C.ar      1 YZ9900      0.0353 
      10 C1         1.0741    1.0085    1.9836 C.ar      1 YZ9900      0.1519 
      11 C7         0.9102    2.5239    0.1252 C.ar      1 YZ9900      0.3521 
      12 C12       -1.2241    3.8850   -0.2790 C.2       1 YZ9900      0.3476 
      13 O4         2.0328   -1.4414    4.5463 O.3       1 YZ9900     -0.2865 
      14 O5         1.4304    3.0267   -0.8572 O.2       1 YZ9900     -0.2442 
      15 C10       -0.0297   -0.2020    4.2541 C.ar      1 YZ9900      0.0422 
      16 C9        -0.4668    2.8959    0.5200 C.ar      1 YZ9900      0.1515 
      17 C8         1.2708   -0.5349    3.8574 C.ar      1 YZ9900      0.1988 
      18 H31       -0.3559    5.0727   -3.9418 H         1 YZ9900      0.0000 
      19 H32       -1.1887    6.6397   -3.8457 H         1 YZ9900      0.0000 
      20 H33        0.3060    6.3699   -2.9233 H         1 YZ9900      0.0000 
      21 H112      -2.3359    4.9222   -2.4745 H         1 YZ9900      0.0000 
      22 H113      -1.6915    6.2331   -1.4625 H         1 YZ9900      0.0000 
      23 H6        -1.7759    0.9786    3.8367 H         1 YZ9900      0.0000 
      24 H5        -2.0065    2.5703    1.9220 H         1 YZ9900      0.0000 
      25 H4         2.8162   -0.1744    2.4067 H         1 YZ9900      0.0000 
      26 HO4        2.8967   -1.5626    4.1221 H         1 YZ9900      0.0000 
      27 H10       -0.4757   -0.6563    5.1265 H         1 YZ9900      0.0000 
@<TRIPOS>BOND
       1       13       17 1        
       2        7       17 ar       
       3        7       10 ar       
       4        8       10 ar       
       5        8       11 ar       
       6       14       11 2        
       7       17       15 ar       
       8       10        9 ar       
       9       11       16 ar       
      10        2        4 1        
      11        2        1 1        
      12       15        5 ar       
      13        9        5 ar       
      14        9        6 ar       
      15       16        6 ar       
      16       16       12 1        
      17        4       12 1        
      18       12        3 2        
      19       18        1 1        
      20       19        1 1        
      21       20        1 1        
      22       21        2 1        
      23       22        2 1        
      24       23        5 1        
      25       24        6 1        
      26       25        7 1        
      27       26       13 1        
      28       27       15 1        
@<TRIPOS>SUBSTRUCTURE
 1 YZ9900 10 RESIDUE 4 A YZ9900 0 ROOT

