#        scan_R01_S0071_C0000_L00001_S0001_C0003_G0010_E0001.mol2
#        Mon Jun 19 14:42:52 2017
#        Descriptor:     21    13    11     3     3     4
#        Energy - RMSD - RMSD MassCentre:     -50.0271    999.9999    999.9999
#        Receptor:       1  Surface Point:    71  Conformer:     0
#        Ligand:         1  Surface Point:     1  Conformer:     3
#        BUDE Formal Charge: 0
#        ATOM Count: 27
#        Heavy ATOM Count: 17
@<TRIPOS>MOLECULE
pdb1gcz_ligA.pdb_scan_R01_S0071_C0000_L00001_S0001_C0003_G0010_E0001
27 28 1 0 0
SMALL
GASTEIGER
@<TRIPOS>ATOM
       1 C3        -3.1362    5.2647   -1.7047 C.3       1 YZ9900      0.0513 
       2 C11       -1.6587    5.6447   -1.6714 C.3       1 YZ9900      0.2089 
       3 O1        -2.0509    4.7843    0.7817 O.2       1 YZ9900     -0.2447 
       4 O2        -0.9055    4.5761   -1.0921 O.3       1 YZ9900     -0.4453 
       5 C6        -0.1991    1.2291    4.0101 C.ar      1 YZ9900      0.0063 
       6 C5        -0.7025    2.7384    2.0772 C.ar      1 YZ9900      0.0160 
       7 C4         1.7922   -0.0543    2.5442 C.ar      1 YZ9900      0.0796 
       8 O3         1.3502    1.3713    0.6517 O.2       1 YZ9900     -0.4208 
       9 C2         0.0642    1.6349    2.6975 C.ar      1 YZ9900      0.0353 
      10 C1         1.0648    0.9900    1.9608 C.ar      1 YZ9900      0.1519 
      11 C7         0.6258    2.4105    0.0723 C.ar      1 YZ9900      0.3521 
      12 C12       -1.1912    4.2155    0.1772 C.2       1 YZ9900      0.3476 
      13 O4         2.2711   -1.4912    4.3852 O.3       1 YZ9900     -0.2865 
      14 O5         0.8917    2.7286   -1.0751 O.2       1 YZ9900     -0.2442 
      15 C10        0.5313    0.1842    4.5886 C.ar      1 YZ9900      0.0422 
      16 C9        -0.4391    3.1152    0.8204 C.ar      1 YZ9900      0.1515 
      17 C8         1.5332   -0.4647    3.8573 C.ar      1 YZ9900      0.1988 
      18 H31       -3.4893    5.0948   -0.6897 H         1 YZ9900      0.0000 
      19 H32       -3.7075    6.0722   -2.1578 H         1 YZ9900      0.0000 
      20 H33       -3.2634    4.3567   -2.2904 H         1 YZ9900      0.0000 
      21 H112      -1.5284    6.5447   -1.0742 H         1 YZ9900      0.0000 
      22 H113      -1.3075    5.8271   -2.6849 H         1 YZ9900      0.0000 
      23 H6        -0.9696    1.7220    4.5844 H         1 YZ9900      0.0000 
      24 H5        -1.4724    3.2295    2.6538 H         1 YZ9900      0.0000 
      25 H4         2.5633   -0.5488    1.9719 H         1 YZ9900      0.0000 
      26 HO4        2.9053   -1.8329    3.7355 H         1 YZ9900      0.0000 
      27 H10        0.3083   -0.1097    5.6036 H         1 YZ9900      0.0000 
@<TRIPOS>BOND
       1       13       17 1        
       2        7       17 ar       
       3        7       10 ar       
       4        8       10 ar       
       5        8       11 ar       
       6       14       11 2        
       7       17       15 ar       
       8       10        9 ar       
       9       11       16 ar       
      10        2        4 1        
      11        2        1 1        
      12       15        5 ar       
      13        9        5 ar       
      14        9        6 ar       
      15       16        6 ar       
      16       16       12 1        
      17        4       12 1        
      18       12        3 2        
      19       18        1 1        
      20       19        1 1        
      21       20        1 1        
      22       21        2 1        
      23       22        2 1        
      24       23        5 1        
      25       24        6 1        
      26       25        7 1        
      27       26       13 1        
      28       27       15 1        
@<TRIPOS>SUBSTRUCTURE
 1 YZ9900 10 RESIDUE 4 A YZ9900 0 ROOT

