#        scan_R01_S0072_C0000_L00001_S0001_C0000_G0010_E0001.mol2
#        Mon Jun 19 14:42:53 2017
#        Descriptor:     18    12    32     2     1     5
#        Energy - RMSD - RMSD MassCentre:     -30.6559    999.9999    999.9999
#        Receptor:       1  Surface Point:    72  Conformer:     0
#        Ligand:         1  Surface Point:     1  Conformer:     0
#        BUDE Formal Charge: 0
#        ATOM Count: 27
#        Heavy ATOM Count: 17
@<TRIPOS>MOLECULE
pdb1gcz_ligA.pdb_scan_R01_S0072_C0000_L00001_S0001_C0000_G0010_E0001
27 28 1 0 0
SMALL
GASTEIGER
@<TRIPOS>ATOM
       1 C3         1.8707    2.3330    6.3804 C.3       1 YZ9900      0.0513 
       2 C11        1.3859    2.2226    4.9631 C.3       1 YZ9900      0.2089 
       3 O1         3.0973   -0.7120    4.5571 O.2       1 YZ9900     -0.2447 
       4 O2         2.3181    1.3688    4.1868 O.3       1 YZ9900     -0.4453 
       5 C6        -1.0527   -3.6952    3.3625 C.ar      1 YZ9900      0.0063 
       6 C5         0.7100   -1.9207    3.6850 C.ar      1 YZ9900      0.0160 
       7 C4        -2.1907   -2.1156    1.1625 C.ar      1 YZ9900      0.0796 
       8 O3        -0.4637   -0.4874    1.5562 O.2       1 YZ9900     -0.4208 
       9 C2        -0.4887   -2.4579    2.9701 C.ar      1 YZ9900      0.0353 
      10 C1        -1.0562   -1.7044    1.8970 C.ar      1 YZ9900      0.1519 
      11 C7         0.5443    0.0382    2.2145 C.ar      1 YZ9900      0.3521 
      12 C12        2.2727    0.0066    4.0798 C.2       1 YZ9900      0.3476 
      13 O4        -3.8091   -3.8618    0.9772 O.3       1 YZ9900     -0.2865 
      14 O5         0.9396    1.0841    1.8851 O.2       1 YZ9900     -0.2442 
      15 C10       -2.2011   -4.1545    2.6542 C.ar      1 YZ9900      0.0422 
      16 C9         1.1588   -0.6740    3.3425 C.ar      1 YZ9900      0.1515 
      17 C8        -2.7240   -3.3710    1.6006 C.ar      1 YZ9900      0.1988 
      18 H31        1.9372    1.3381    6.8207 H         1 YZ9900      0.0000 
      19 H32        2.8547    2.8018    6.3920 H         1 YZ9900      0.0000 
      20 H33        1.1724    2.9397    6.9569 H         1 YZ9900      0.0000 
      21 H112       1.3441    3.2155    4.5151 H         1 YZ9900      0.0000 
      22 H113       0.3911    1.7772    4.9529 H         1 YZ9900      0.0000 
      23 H6        -0.6275   -4.2715    4.1706 H         1 YZ9900      0.0000 
      24 H5         1.2069   -2.4995    4.4493 H         1 YZ9900      0.0000 
      25 H4        -2.6137   -1.5411    0.3517 H         1 YZ9900      0.0000 
      26 HO4       -4.5691   -3.8000    1.5604 H         1 YZ9900      0.0000 
      27 H10       -2.6671   -5.0918    2.9201 H         1 YZ9900      0.0000 
@<TRIPOS>BOND
       1       13       17 1        
       2        7       17 ar       
       3        7       10 ar       
       4        8       10 ar       
       5        8       11 ar       
       6       14       11 2        
       7       17       15 ar       
       8       10        9 ar       
       9       11       16 ar       
      10        2        4 1        
      11        2        1 1        
      12       15        5 ar       
      13        9        5 ar       
      14        9        6 ar       
      15       16        6 ar       
      16       16       12 1        
      17        4       12 1        
      18       12        3 2        
      19       18        1 1        
      20       19        1 1        
      21       20        1 1        
      22       21        2 1        
      23       22        2 1        
      24       23        5 1        
      25       24        6 1        
      26       25        7 1        
      27       26       13 1        
      28       27       15 1        
@<TRIPOS>SUBSTRUCTURE
 1 YZ9900 10 RESIDUE 4 A YZ9900 0 ROOT

