#        1GCZ_R01_S0001_C0000_L00005_S0001_C0010_G0010_E0001.mol2
#        Tue Jun  6 09:55:37 2017
#        Descriptor:      5    25    14    12     8    13
#        Energy - RMSD - RMSD MassCentre:     -64.5536    999.9999    999.9999
#        Receptor:       1  Surface Point:     1  Conformer:     0
#        Ligand:         5  Surface Point:     1  Conformer:    10
#        BUDE Formal Charge: 0
#        ATOM Count: 55
#        Heavy ATOM Count: 30
@<TRIPOS>MOLECULE
ZINC61464195_1GCZ_R01_S0001_C0000_L00005_S0001_C0010_G0010_E0001
 55 56 0 0 0
SMALL
USER_CHARGES
@<TRIPOS>ATOM
       1 C1        -1.0740    1.7393    1.5706 C.3       1 <0>        -0.1456 
       2 C2        -1.2628    0.5506    2.5087 C.3       1 <0>        -0.0579 
       3 C3        -0.6665   -0.7012    1.8714 C.3       1 <0>        -0.1456 
       4 C4        -0.5649    0.8285    3.8185 C.ar      1 <0>        -0.0771 
       5 C5        -1.3338    0.8609    4.9878 C.ar      1 <0>        -0.0943 
       6 C6        -0.7065    1.0164    6.2297 C.ar      1 <0>        -0.0923 
       7 C7         0.6860    1.1337    6.3126 C.ar      1 <0>        -0.1041 
       8 C8         1.4583    1.1553    5.1452 C.ar      1 <0>        -0.1315 
       9 C9         0.8204    1.0335    3.9051 C.ar      1 <0>        -0.0969 
      10 S1         1.4639    1.2616    7.8974 S.3       1 <0>        -0.0341 
      11 C10        1.8697   -0.4039    8.5090 C.3       1 <0>        -0.1267 
      12 C11        2.8238   -1.0730    7.5486 C.2       1 <0>         0.4864 
      13 O1         2.4183   -1.8833    6.7697 O.2       1 <0>        -0.4815 
      14 O2         4.1357   -0.7554    7.5701 O.3       1 <0>        -0.3231 
      15 C12        4.5743    0.2197    8.5196 C.3       1 <0>         0.0526 
      16 C13        6.0634    0.4258    8.3767 C.2       1 <0>         0.5250 
      17 O3         6.8063    0.2267    9.3366 O.2       1 <0>        -0.5082 
      18 N1         6.5721    0.8225    7.2138 N.am      1 <0>        -0.5981 
      19 C14        5.6843    1.0604    6.0666 C.3       1 <0>         0.0731 
      20 C15        8.0219    1.0227    7.0764 C.3       1 <0>         0.1010 
      21 C16        8.4863    0.4466    5.7601 C.2       1 <0>         0.4997 
      22 O4         9.1564    1.1335    4.9908 O.2       1 <0>        -0.5061 
      23 N2         8.1702   -0.8033    5.4333 N.am      1 <0>        -0.6702 
      24 C17        8.6053   -1.3432    4.1999 C.ar      1 <0>         0.1553 
      25 C18        7.7314   -2.1173    3.4274 C.ar      1 <0>        -0.1106 
      26 C19        8.1639   -2.6435    2.2042 C.ar      1 <0>        -0.0959 
      27 C20        9.4664   -2.4056    1.7565 C.ar      1 <0>        -0.1208 
      28 C21       10.3455   -1.6430    2.5348 C.ar      1 <0>        -0.0919 
      29 C22        9.9117   -1.1096    3.7543 C.ar      1 <0>        -0.0639 
      30 Cl1       11.0025   -0.1646    4.7265 Cl        1 <0>        -0.0632 
      31 H1        -0.0128    1.8854    1.3802 H         1 <0>         0.0596 
      32 H2        -1.5881    1.5446    0.6316 H         1 <0>         0.0563 
      33 H3        -1.4869    2.6339    2.0321 H         1 <0>         0.0575 
      34 H4        -2.3243    0.3957    2.6899 H         1 <0>         0.0784 
      35 H5        -0.8128   -1.5504    2.5358 H         1 <0>         0.0596 
      36 H6         0.3978   -0.5501    1.7037 H         1 <0>         0.0574 
      37 H7        -1.1603   -0.8939    0.9212 H         1 <0>         0.0563 
      38 H8        -2.4076    0.7515    4.9509 H         1 <0>         0.1285 
      39 H9        -1.2556    1.0427    7.1594 H         1 <0>         0.1293 
      40 H10        2.5299    1.2653    5.2238 H         1 <0>         0.1227 
      41 H11        1.4273    1.0880    3.0135 H         1 <0>         0.1262 
      42 H12        2.3367   -0.3273    9.4887 H         1 <0>         0.1329 
      43 H13        0.9593   -0.9946    8.5854 H         1 <0>         0.1329 
      44 H14        4.3519   -0.1278    9.5264 H         1 <0>         0.1063 
      45 H15        4.0595    1.1608    8.3382 H         1 <0>         0.1054 
      46 H16        4.9753    1.8475    6.3147 H         1 <0>         0.0686 
      47 H17        6.2775    1.3635    5.2065 H         1 <0>         0.0794 
      48 H18        5.1440    0.1458    5.8312 H         1 <0>         0.0778 
      49 H19        8.2447    2.0873    7.1057 H         1 <0>         0.1198 
      50 H20        8.5357    0.5213    7.8939 H         1 <0>         0.1233 
      51 H21        7.6198   -1.3665    6.0659 H         1 <0>         0.4142 
      52 H22        6.7237   -2.3050    3.7680 H         1 <0>         0.1473 
      53 H23        7.4856   -3.2342    1.6060 H         1 <0>         0.1337 
      54 H24        9.7983   -2.8085    0.8111 H         1 <0>         0.1349 
      55 H25       11.3543   -1.4638    2.1934 H         1 <0>         0.1385 
@<TRIPOS>BOND
       1        1        2 1        
       2        1       31 1        
       3        1       32 1        
       4        1       33 1        
       5        2        3 1        
       6        2        4 1        
       7        2       34 1        
       8        3       35 1        
       9        3       36 1        
      10        3       37 1        
      11        4        9 ar       
      12        4        5 ar       
      13        5        6 ar       
      14        5       38 1        
      15        6        7 ar       
      16        6       39 1        
      17        7        8 ar       
      18        7       10 1        
      19        8        9 ar       
      20        8       40 1        
      21        9       41 1        
      22       10       11 1        
      23       11       12 1        
      24       11       42 1        
      25       11       43 1        
      26       12       13 2        
      27       12       14 1        
      28       14       15 1        
      29       15       16 1        
      30       15       44 1        
      31       15       45 1        
      32       16       17 2        
      33       16       18 am       
      34       18       19 1        
      35       18       20 1        
      36       19       46 1        
      37       19       47 1        
      38       19       48 1        
      39       20       21 1        
      40       20       49 1        
      41       20       50 1        
      42       21       22 2        
      43       21       23 am       
      44       23       24 1        
      45       23       51 1        
      46       24       29 ar       
      47       24       25 ar       
      48       25       26 ar       
      49       25       52 1        
      50       26       27 ar       
      51       26       53 1        
      52       27       28 ar       
      53       27       54 1        
      54       28       29 ar       
      55       28       55 1        
      56       29       30 1        

