#        scan_R01_S0072_C0000_L00001_S0001_C0002_G0010_E0001.mol2
#        Mon Jun 19 14:42:53 2017
#        Descriptor:     10    19    30     2     1     5
#        Energy - RMSD - RMSD MassCentre:     -34.9608    999.9999    999.9999
#        Receptor:       1  Surface Point:    72  Conformer:     0
#        Ligand:         1  Surface Point:     1  Conformer:     2
#        BUDE Formal Charge: 0
#        ATOM Count: 27
#        Heavy ATOM Count: 17
@<TRIPOS>MOLECULE
pdb1gcz_ligA.pdb_scan_R01_S0072_C0000_L00001_S0001_C0002_G0010_E0001
27 28 1 0 0
SMALL
GASTEIGER
@<TRIPOS>ATOM
       1 C3         2.8348   -7.6926    4.3483 C.3       1 YZ9900      0.0513 
       2 C11        1.3931   -7.1927    4.3530 C.3       1 YZ9900      0.2089 
       3 O1        -0.8275   -5.7927    4.2078 O.2       1 YZ9900     -0.2447 
       4 O2         1.3703   -5.8026    4.0185 O.3       1 YZ9900     -0.4453 
       5 C6        -2.3451   -0.9840    3.1761 C.ar      1 YZ9900      0.0063 
       6 C5        -1.0774   -3.1049    3.5789 C.ar      1 YZ9900      0.0160 
       7 C4         0.0239    0.3801    2.6393 C.ar      1 YZ9900      0.0796 
       8 O3         1.2953   -1.6326    3.0157 O.2       1 YZ9900     -0.4208 
       9 C2        -1.1253   -1.6662    3.2348 C.ar      1 YZ9900      0.0353 
      10 C1         0.0652   -0.9808    2.9651 C.ar      1 YZ9900      0.1519 
      11 C7         1.3351   -2.9867    3.3400 C.ar      1 YZ9900      0.3521 
      12 C12        0.1723   -5.1818    3.9728 C.2       1 YZ9900      0.3476 
      13 O4        -1.1838    2.3993    2.2558 O.3       1 YZ9900     -0.2865 
      14 O5         2.4226   -3.5384    3.3787 O.2       1 YZ9900     -0.2442 
      15 C10       -2.3806    0.3770    2.8497 C.ar      1 YZ9900      0.0422 
      16 C9         0.0973   -3.7438    3.6312 C.ar      1 YZ9900      0.1515 
      17 C8        -1.1938    1.0680    2.5789 C.ar      1 YZ9900      0.1988 
      18 H31        3.4112   -7.1424    5.0893 H         1 YZ9900      0.0000 
      19 H32        2.8509   -8.7533    4.5898 H         1 YZ9900      0.0000 
      20 H33        3.2684   -7.5378    3.3626 H         1 YZ9900      0.0000 
      21 H112       0.9627   -7.3341    5.3423 H         1 YZ9900      0.0000 
      22 H113       0.8126   -7.7507    3.6213 H         1 YZ9900      0.0000 
      23 H6        -3.2676   -1.5062    3.3830 H         1 YZ9900      0.0000 
      24 H5        -2.0013   -3.6247    3.7853 H         1 YZ9900      0.0000 
      25 H4         0.9450    0.9046    2.4319 H         1 YZ9900      0.0000 
      26 HO4       -0.2774    2.7166    2.1183 H         1 YZ9900      0.0000 
      27 H10       -3.3354    0.8803    2.8112 H         1 YZ9900      0.0000 
@<TRIPOS>BOND
       1       13       17 1        
       2        7       17 ar       
       3        7       10 ar       
       4        8       10 ar       
       5        8       11 ar       
       6       14       11 2        
       7       17       15 ar       
       8       10        9 ar       
       9       11       16 ar       
      10        2        4 1        
      11        2        1 1        
      12       15        5 ar       
      13        9        5 ar       
      14        9        6 ar       
      15       16        6 ar       
      16       16       12 1        
      17        4       12 1        
      18       12        3 2        
      19       18        1 1        
      20       19        1 1        
      21       20        1 1        
      22       21        2 1        
      23       22        2 1        
      24       23        5 1        
      25       24        6 1        
      26       25        7 1        
      27       26       13 1        
      28       27       15 1        
@<TRIPOS>SUBSTRUCTURE
 1 YZ9900 10 RESIDUE 4 A YZ9900 0 ROOT

