#        scan_R01_S0072_C0000_L00001_S0001_C0002_G0010_E0001.mol2
#        Mon Jun 19 14:14:45 2017
#        Descriptor:     27    36    10     3     1     6
#        Energy - RMSD - RMSD MassCentre:     -34.9181    999.9999    999.9999
#        Receptor:       1  Surface Point:    72  Conformer:     0
#        Ligand:         1  Surface Point:     1  Conformer:     2
#        BUDE Formal Charge: 0
#        ATOM Count: 27
#        Heavy ATOM Count: 17
@<TRIPOS>MOLECULE
pdb1gcz_ligA.pdb_scan_R01_S0072_C0000_L00001_S0001_C0002_G0010_E0001
27 28 1 0 0
SMALL
GASTEIGER
@<TRIPOS>ATOM
       1 C3         1.3969   -8.3811    3.9193 C.3       1 YZ9900      0.0513 
       2 C11        0.1962   -7.4399    3.9478 C.3       1 YZ9900      0.2089 
       3 O1        -1.4360   -5.3793    3.9918 O.2       1 YZ9900     -0.2447 
       4 O2         0.6535   -6.0850    3.9485 O.3       1 YZ9900     -0.4453 
       5 C6        -1.2244   -0.2369    4.0224 C.ar      1 YZ9900      0.0063 
       6 C5        -0.7479   -2.6945    3.9971 C.ar      1 YZ9900      0.0160 
       7 C4         1.5017    0.3353    3.9759 C.ar      1 YZ9900      0.0796 
       8 O3         2.0190   -2.0186    3.9506 O.2       1 YZ9900     -0.4208 
       9 C2        -0.2978   -1.2846    3.9982 C.ar      1 YZ9900      0.0353 
      10 C1         1.0721   -0.9971    3.9749 C.ar      1 YZ9900      0.1519 
      11 C7         1.5903   -3.3440    3.9496 C.ar      1 YZ9900      0.3521 
      12 C12       -0.2734   -5.1038    3.9722 C.2       1 YZ9900      0.3476 
      13 O4         1.0474    2.6754    4.0000 O.3       1 YZ9900     -0.2865 
      14 O5         2.4358   -4.2232    3.9281 O.2       1 YZ9900     -0.2442 
      15 C10       -0.7893    1.0938    4.0233 C.ar      1 YZ9900      0.0422 
      16 C9         0.1506   -3.6859    3.9739 C.ar      1 YZ9900      0.1515 
      17 C8         0.5792    1.3879    4.0000 C.ar      1 YZ9900      0.1988 
      18 H31        2.0076   -8.2158    4.8046 H         1 YZ9900      0.0000 
      19 H32        1.0487   -9.4117    3.9054 H         1 YZ9900      0.0000 
      20 H33        1.9891   -8.1856    3.0278 H         1 YZ9900      0.0000 
      21 H112      -0.3892   -7.6248    4.8461 H         1 YZ9900      0.0000 
      22 H113      -0.4220   -7.6129    3.0694 H         1 YZ9900      0.0000 
      23 H6        -2.2828   -0.4510    4.0405 H         1 YZ9900      0.0000 
      24 H5        -1.8069   -2.9058    4.0152 H         1 YZ9900      0.0000 
      25 H4         2.5597    0.5521    3.9578 H         1 YZ9900      0.0000 
      26 HO4        2.0173    2.6922    4.0000 H         1 YZ9900      0.0000 
      27 H10       -1.5251    1.8841    4.0422 H         1 YZ9900      0.0000 
@<TRIPOS>BOND
       1       13       17 1        
       2        7       17 ar       
       3        7       10 ar       
       4        8       10 ar       
       5        8       11 ar       
       6       14       11 2        
       7       17       15 ar       
       8       10        9 ar       
       9       11       16 ar       
      10        2        4 1        
      11        2        1 1        
      12       15        5 ar       
      13        9        5 ar       
      14        9        6 ar       
      15       16        6 ar       
      16       16       12 1        
      17        4       12 1        
      18       12        3 2        
      19       18        1 1        
      20       19        1 1        
      21       20        1 1        
      22       21        2 1        
      23       22        2 1        
      24       23        5 1        
      25       24        6 1        
      26       25        7 1        
      27       26       13 1        
      28       27       15 1        
@<TRIPOS>SUBSTRUCTURE
 1 YZ9900 10 RESIDUE 4 A YZ9900 0 ROOT

