#        scan_R01_S0072_C0000_L00001_S0001_C0003_G0010_E0001.mol2
#        Mon Jun 19 14:14:45 2017
#        Descriptor:     11     2    36     2     2     5
#        Energy - RMSD - RMSD MassCentre:     -35.1346    999.9999    999.9999
#        Receptor:       1  Surface Point:    72  Conformer:     0
#        Ligand:         1  Surface Point:     1  Conformer:     3
#        BUDE Formal Charge: 0
#        ATOM Count: 27
#        Heavy ATOM Count: 17
@<TRIPOS>MOLECULE
pdb1gcz_ligA.pdb_scan_R01_S0072_C0000_L00001_S0001_C0003_G0010_E0001
27 28 1 0 0
SMALL
GASTEIGER
@<TRIPOS>ATOM
       1 C3        -5.2294   -2.1670   -1.1205 C.3       1 YZ9900      0.0513 
       2 C11       -5.6218   -1.8126    0.3109 C.3       1 YZ9900      0.2089 
       3 O1        -3.2883   -2.9718    0.6614 O.2       1 YZ9900     -0.2447 
       4 O2        -4.5226   -1.1680    0.9598 O.3       1 YZ9900     -0.4453 
       5 C6         1.3171   -1.9263    2.7079 C.ar      1 YZ9900      0.0063 
       6 C5        -1.0480   -1.8950    1.8878 C.ar      1 YZ9900      0.0160 
       7 C4         1.0612    0.6740    3.6746 C.ar      1 YZ9900      0.0796 
       8 O3        -1.2215    0.7599    2.9057 O.2       1 YZ9900     -0.4208 
       9 C2         0.1031   -1.2481    2.5562 C.ar      1 YZ9900      0.0353 
      10 C1        -0.0255    0.0586    3.0418 C.ar      1 YZ9900      0.1519 
      11 C7        -2.3021    0.1466    2.2759 C.ar      1 YZ9900      0.3521 
      12 C12       -3.3688   -1.8576    1.0858 C.2       1 YZ9900      0.3476 
      13 O4         3.3134    0.6436    4.4553 O.3       1 YZ9900     -0.2865 
      14 O5        -3.3402    0.7782    2.1671 O.2       1 YZ9900     -0.2442 
      15 C10        2.4007   -1.3062    3.3415 C.ar      1 YZ9900      0.0422 
      16 C9        -2.2030   -1.2333    1.7501 C.ar      1 YZ9900      0.1515 
      17 C8         2.2784    0.0002    3.8294 C.ar      1 YZ9900      0.1988 
      18 H31       -4.3808   -2.8479   -1.1052 H         1 YZ9900      0.0000 
      19 H32       -6.0701   -2.6453   -1.6185 H         1 YZ9900      0.0000 
      20 H33       -4.9578   -1.2600   -1.6566 H         1 YZ9900      0.0000 
      21 H112      -5.8800   -2.7203    0.8522 H         1 YZ9900      0.0000 
      22 H113      -6.4781   -1.1416    0.2973 H         1 YZ9900      0.0000 
      23 H6         1.4238   -2.9345    2.3357 H         1 YZ9900      0.0000 
      24 H5        -0.9387   -2.9033    1.5166 H         1 YZ9900      0.0000 
      25 H4         0.9571    1.6822    4.0477 H         1 YZ9900      0.0000 
      26 HO4        3.0587    1.5439    4.7113 H         1 YZ9900      0.0000 
      27 H10        3.3269   -1.8517    3.4459 H         1 YZ9900      0.0000 
@<TRIPOS>BOND
       1       13       17 1        
       2        7       17 ar       
       3        7       10 ar       
       4        8       10 ar       
       5        8       11 ar       
       6       14       11 2        
       7       17       15 ar       
       8       10        9 ar       
       9       11       16 ar       
      10        2        4 1        
      11        2        1 1        
      12       15        5 ar       
      13        9        5 ar       
      14        9        6 ar       
      15       16        6 ar       
      16       16       12 1        
      17        4       12 1        
      18       12        3 2        
      19       18        1 1        
      20       19        1 1        
      21       20        1 1        
      22       21        2 1        
      23       22        2 1        
      24       23        5 1        
      25       24        6 1        
      26       25        7 1        
      27       26       13 1        
      28       27       15 1        
@<TRIPOS>SUBSTRUCTURE
 1 YZ9900 10 RESIDUE 4 A YZ9900 0 ROOT

