#        scan_R01_S0073_C0000_L00001_S0001_C0000_G0010_E0001.mol2
#        Mon Jun 19 14:14:46 2017
#        Descriptor:     10     6    16     1     3     4
#        Energy - RMSD - RMSD MassCentre:     -38.0990    999.9999    999.9999
#        Receptor:       1  Surface Point:    73  Conformer:     0
#        Ligand:         1  Surface Point:     1  Conformer:     0
#        BUDE Formal Charge: 0
#        ATOM Count: 27
#        Heavy ATOM Count: 17
@<TRIPOS>MOLECULE
pdb1gcz_ligA.pdb_scan_R01_S0073_C0000_L00001_S0001_C0000_G0010_E0001
27 28 1 0 0
SMALL
GASTEIGER
@<TRIPOS>ATOM
       1 C3        -5.5648    3.0949    2.8997 C.3       1 YZ9900      0.0513 
       2 C11       -4.9070    1.9134    2.2461 C.3       1 YZ9900      0.2089 
       3 O1        -2.5008    3.9389    0.8995 O.2       1 YZ9900     -0.2447 
       4 O2        -4.1092    2.3726    1.0827 O.3       1 YZ9900     -0.4453 
       5 C6         1.6221    1.5826    3.1353 C.ar      1 YZ9900      0.0063 
       6 C5        -0.5384    2.2677    2.0294 C.ar      1 YZ9900      0.0160 
       7 C4         1.1274   -1.1913    2.3043 C.ar      1 YZ9900      0.0796 
       8 O3        -0.9119   -0.4275    1.2812 O.2       1 YZ9900     -0.4208 
       9 C2         0.4686    1.2250    2.3975 C.ar      1 YZ9900      0.0353 
      10 C1         0.2458   -0.1297    2.0018 C.ar      1 YZ9900      0.1519 
      11 C7        -1.8442    0.4568    1.0083 C.ar      1 YZ9900      0.3521 
      12 C12       -2.8130    2.8061    1.1080 C.2       1 YZ9900      0.3476 
      13 O4         3.1842   -1.7041    3.4039 O.3       1 YZ9900     -0.2865 
      14 O5        -2.8002    0.1017    0.4437 O.2       1 YZ9900     -0.2442 
      15 C10        2.5430    0.5472    3.4687 C.ar      1 YZ9900      0.0422 
      16 C9        -1.6880    1.8615    1.4077 C.ar      1 YZ9900      0.1515 
      17 C8         2.2760   -0.7771    3.0537 C.ar      1 YZ9900      0.1988 
      18 H31       -4.8025    3.8079    3.2142 H         1 YZ9900      0.0000 
      19 H32       -6.2391    3.5738    2.1897 H         1 YZ9900      0.0000 
      20 H33       -6.1306    2.7605    3.7693 H         1 YZ9900      0.0000 
      21 H112      -5.6710    1.2128    1.9088 H         1 YZ9900      0.0000 
      22 H113      -4.2520    1.4190    2.9635 H         1 YZ9900      0.0000 
      23 H6         1.7984    2.6049    3.4354 H         1 YZ9900      0.0000 
      24 H5        -0.3637    3.3107    2.2480 H         1 YZ9900      0.0000 
      25 H4         0.9529   -2.2130    2.0009 H         1 YZ9900      0.0000 
      26 HO4        3.1324   -1.8625    4.3492 H         1 YZ9900      0.0000 
      27 H10        3.4361    0.7724    4.0328 H         1 YZ9900      0.0000 
@<TRIPOS>BOND
       1       13       17 1        
       2        7       17 ar       
       3        7       10 ar       
       4        8       10 ar       
       5        8       11 ar       
       6       14       11 2        
       7       17       15 ar       
       8       10        9 ar       
       9       11       16 ar       
      10        2        4 1        
      11        2        1 1        
      12       15        5 ar       
      13        9        5 ar       
      14        9        6 ar       
      15       16        6 ar       
      16       16       12 1        
      17        4       12 1        
      18       12        3 2        
      19       18        1 1        
      20       19        1 1        
      21       20        1 1        
      22       21        2 1        
      23       22        2 1        
      24       23        5 1        
      25       24        6 1        
      26       25        7 1        
      27       26       13 1        
      28       27       15 1        
@<TRIPOS>SUBSTRUCTURE
 1 YZ9900 10 RESIDUE 4 A YZ9900 0 ROOT

