#        scan_R01_S0073_C0000_L00001_S0001_C0002_G0010_E0001.mol2
#        Mon Jun 19 14:42:55 2017
#        Descriptor:     27     1    34     1     2     4
#        Energy - RMSD - RMSD MassCentre:     -42.3361    999.9999    999.9999
#        Receptor:       1  Surface Point:    73  Conformer:     0
#        Ligand:         1  Surface Point:     1  Conformer:     2
#        BUDE Formal Charge: 0
#        ATOM Count: 27
#        Heavy ATOM Count: 17
@<TRIPOS>MOLECULE
pdb1gcz_ligA.pdb_scan_R01_S0073_C0000_L00001_S0001_C0002_G0010_E0001
27 28 1 0 0
SMALL
GASTEIGER
@<TRIPOS>ATOM
       1 C3        -7.4728    3.3039    0.6463 C.3       1 YZ9900      0.0513 
       2 C11       -6.0782    3.8808    0.8715 C.3       1 YZ9900      0.2089 
       3 O1        -3.5177    4.2787    1.3165 O.2       1 YZ9900     -0.2447 
       4 O2        -5.1515    2.8138    1.0901 O.3       1 YZ9900     -0.4453 
       5 C6         0.7532    1.5521    2.2196 C.ar      1 YZ9900      0.0063 
       6 C5        -1.5735    2.3537    1.7601 C.ar      1 YZ9900      0.0160 
       7 C4        -0.1081   -1.0972    2.1895 C.ar      1 YZ9900      0.0796 
       8 O3        -2.3667   -0.3822    1.7464 O.2       1 YZ9900     -0.4208 
       9 C2        -0.5965    1.2658    1.9887 C.ar      1 YZ9900      0.0353 
      10 C1        -1.0293   -0.0654    1.9736 C.ar      1 YZ9900      0.1519 
      11 C7        -3.2825    0.6453    1.5317 C.ar      1 YZ9900      0.3521 
      12 C12       -3.8582    3.1332    1.3092 C.2       1 YZ9900      0.3476 
      13 O4         2.1077   -1.8600    2.6271 O.3       1 YZ9900     -0.2865 
      14 O5        -4.4487    0.3461    1.3347 O.2       1 YZ9900     -0.2442 
      15 C10        1.6702    0.5164    2.4350 C.ar      1 YZ9900      0.0422 
      16 C9        -2.8614    2.0640    1.5406 C.ar      1 YZ9900      0.1515 
      17 C8         1.2438   -0.8169    2.4210 C.ar      1 YZ9900      0.1988 
      18 H31       -7.7802    2.7452    1.5280 H         1 YZ9900      0.0000 
      19 H32       -8.1753    4.1150    0.4669 H         1 YZ9900      0.0000 
      20 H33       -7.4554    2.6408   -0.2161 H         1 YZ9900      0.0000 
      21 H112      -6.0910    4.5331    1.7422 H         1 YZ9900      0.0000 
      22 H113      -5.7746    4.4501   -0.0045 H         1 YZ9900      0.0000 
      23 H6         1.0944    2.5767    2.2328 H         1 YZ9900      0.0000 
      24 H5        -1.2296    3.3774    1.7737 H         1 YZ9900      0.0000 
      25 H4        -0.4467   -2.1227    2.1768 H         1 YZ9900      0.0000 
      26 HO4        1.6395   -2.7092    2.6007 H         1 YZ9900      0.0000 
      27 H10        2.7066    0.7643    2.6109 H         1 YZ9900      0.0000 
@<TRIPOS>BOND
       1       13       17 1        
       2        7       17 ar       
       3        7       10 ar       
       4        8       10 ar       
       5        8       11 ar       
       6       14       11 2        
       7       17       15 ar       
       8       10        9 ar       
       9       11       16 ar       
      10        2        4 1        
      11        2        1 1        
      12       15        5 ar       
      13        9        5 ar       
      14        9        6 ar       
      15       16        6 ar       
      16       16       12 1        
      17        4       12 1        
      18       12        3 2        
      19       18        1 1        
      20       19        1 1        
      21       20        1 1        
      22       21        2 1        
      23       22        2 1        
      24       23        5 1        
      25       24        6 1        
      26       25        7 1        
      27       26       13 1        
      28       27       15 1        
@<TRIPOS>SUBSTRUCTURE
 1 YZ9900 10 RESIDUE 4 A YZ9900 0 ROOT

