#        scan_R01_S0073_C0000_L00001_S0001_C0002_G0010_E0001.mol2
#        Mon Jun 19 14:14:47 2017
#        Descriptor:     12    18    17     1     2     4
#        Energy - RMSD - RMSD MassCentre:     -41.1397    999.9999    999.9999
#        Receptor:       1  Surface Point:    73  Conformer:     0
#        Ligand:         1  Surface Point:     1  Conformer:     2
#        BUDE Formal Charge: 0
#        ATOM Count: 27
#        Heavy ATOM Count: 17
@<TRIPOS>MOLECULE
pdb1gcz_ligA.pdb_scan_R01_S0073_C0000_L00001_S0001_C0002_G0010_E0001
27 28 1 0 0
SMALL
GASTEIGER
@<TRIPOS>ATOM
       1 C3        -8.0855    2.0737    2.3755 C.3       1 YZ9900      0.0513 
       2 C11       -6.8165    2.7316    2.9097 C.3       1 YZ9900      0.2089 
       3 O1        -4.3549    3.3741    3.5726 O.2       1 YZ9900     -0.2447 
       4 O2        -5.6839    1.9286    2.5675 O.3       1 YZ9900     -0.4453 
       5 C6         0.4281    1.5467    3.0484 C.ar      1 YZ9900      0.0063 
       6 C5        -2.0411    1.9575    3.0053 C.ar      1 YZ9900      0.0160 
       7 C4         0.1022   -0.8205    1.6161 C.ar      1 YZ9900      0.0796 
       8 O3        -2.2822   -0.4757    1.5439 O.2       1 YZ9900     -0.4208 
       9 C2        -0.8543    1.1426    2.6622 C.ar      1 YZ9900      0.0353 
      10 C1        -1.0181   -0.0469    1.9425 C.ar      1 YZ9900      0.1519 
      11 C7        -3.3961    0.2948    1.8692 C.ar      1 YZ9900      0.3521 
      12 C12       -4.4641    2.3544    2.9593 C.2       1 YZ9900      0.3476 
      13 O4         2.4534   -1.2112    1.6576 O.3       1 YZ9900     -0.2865 
      14 O5        -4.4938   -0.0987    1.5106 O.2       1 YZ9900     -0.2442 
      15 C10        1.5449    0.7692    2.7194 C.ar      1 YZ9900      0.0422 
      16 C9        -3.2615    1.5578    2.6288 C.ar      1 YZ9900      0.1515 
      17 C8         1.3878   -0.4212    1.9999 C.ar      1 YZ9900      0.1988 
      18 H31       -8.2011    1.0905    2.8272 H         1 YZ9900      0.0000 
      19 H32       -8.9458    2.6914    2.6244 H         1 YZ9900      0.0000 
      20 H33       -8.0125    1.9708    1.2949 H         1 YZ9900      0.0000 
      21 H112      -6.8822    2.8223    3.9920 H         1 YZ9900      0.0000 
      22 H113      -6.7062    3.7199    2.4684 H         1 YZ9900      0.0000 
      23 H6         0.5622    2.4631    3.6039 H         1 YZ9900      0.0000 
      24 H5        -1.9041    2.8736    3.5608 H         1 YZ9900      0.0000 
      25 H4        -0.0293   -1.7375    1.0607 H         1 YZ9900      0.0000 
      26 HO4        2.1599   -2.0020    1.1785 H         1 YZ9900      0.0000 
      27 H10        2.5240    1.1036    3.0295 H         1 YZ9900      0.0000 
@<TRIPOS>BOND
       1       13       17 1        
       2        7       17 ar       
       3        7       10 ar       
       4        8       10 ar       
       5        8       11 ar       
       6       14       11 2        
       7       17       15 ar       
       8       10        9 ar       
       9       11       16 ar       
      10        2        4 1        
      11        2        1 1        
      12       15        5 ar       
      13        9        5 ar       
      14        9        6 ar       
      15       16        6 ar       
      16       16       12 1        
      17        4       12 1        
      18       12        3 2        
      19       18        1 1        
      20       19        1 1        
      21       20        1 1        
      22       21        2 1        
      23       22        2 1        
      24       23        5 1        
      25       24        6 1        
      26       25        7 1        
      27       26       13 1        
      28       27       15 1        
@<TRIPOS>SUBSTRUCTURE
 1 YZ9900 10 RESIDUE 4 A YZ9900 0 ROOT

