#        scan_R01_S0073_C0000_L00001_S0001_C0003_G0010_E0001.mol2
#        Mon Jun 19 14:42:56 2017
#        Descriptor:     30     2    35     2     2     4
#        Energy - RMSD - RMSD MassCentre:     -44.0321    999.9999    999.9999
#        Receptor:       1  Surface Point:    73  Conformer:     0
#        Ligand:         1  Surface Point:     1  Conformer:     3
#        BUDE Formal Charge: 0
#        ATOM Count: 27
#        Heavy ATOM Count: 17
@<TRIPOS>MOLECULE
pdb1gcz_ligA.pdb_scan_R01_S0073_C0000_L00001_S0001_C0003_G0010_E0001
27 28 1 0 0
SMALL
GASTEIGER
@<TRIPOS>ATOM
       1 C3        -6.3618    2.9214    2.1190 C.3       1 YZ9900      0.0513 
       2 C11       -5.7546    2.7207    0.7335 C.3       1 YZ9900      0.2089 
       3 O1        -3.6535    3.4268    2.1474 O.2       1 YZ9900     -0.2447 
       4 O2        -4.5812    1.9105    0.8411 O.3       1 YZ9900     -0.4453 
       5 C6         1.0074    1.6209    3.3744 C.ar      1 YZ9900      0.0063 
       6 C5        -1.2986    2.0029    2.4777 C.ar      1 YZ9900      0.0160 
       7 C4         1.1585   -0.8305    2.0592 C.ar      1 YZ9900      0.0796 
       8 O3        -1.0585   -0.5152    1.1678 O.2       1 YZ9900     -0.4208 
       9 C2        -0.0741    1.1814    2.6035 C.ar      1 YZ9900      0.0353 
      10 C1         0.0018   -0.0505    1.9427 C.ar      1 YZ9900      0.1519 
      11 C7        -2.2089    0.2618    1.0525 C.ar      1 YZ9900      0.3521 
      12 C12       -3.5603    2.3714    1.5948 C.2       1 YZ9900      0.3476 
      13 O4         3.3543   -1.1937    2.9133 O.3       1 YZ9900     -0.2865 
      14 O5        -3.1256   -0.1636    0.3692 O.2       1 YZ9900     -0.2442 
      15 C10        2.1617    0.8368    3.4876 C.ar      1 YZ9900      0.0422 
      16 C9        -2.3249    1.5690    1.7367 C.ar      1 YZ9900      0.1515 
      17 C8         2.2439   -0.3958    2.8292 C.ar      1 YZ9900      0.1988 
      18 H31       -5.6422    3.4268    2.7599 H         1 YZ9900      0.0000 
      19 H32       -7.2620    3.5266    2.0355 H         1 YZ9900      0.0000 
      20 H33       -6.6133    1.9536    2.5477 H         1 YZ9900      0.0000 
      21 H112      -5.4896    3.6870    0.3095 H         1 YZ9900      0.0000 
      22 H113      -6.4777    2.2266    0.0880 H         1 YZ9900      0.0000 
      23 H6         0.9560    2.5700    3.8870 H         1 YZ9900      0.0000 
      24 H5        -1.3473    2.9517    2.9914 H         1 YZ9900      0.0000 
      25 H4         1.2124   -1.7801    1.5475 H         1 YZ9900      0.0000 
      26 HO4        3.2311   -2.0146    2.4113 H         1 YZ9900      0.0000 
      27 H10        2.9825    1.1991    4.0888 H         1 YZ9900      0.0000 
@<TRIPOS>BOND
       1       13       17 1        
       2        7       17 ar       
       3        7       10 ar       
       4        8       10 ar       
       5        8       11 ar       
       6       14       11 2        
       7       17       15 ar       
       8       10        9 ar       
       9       11       16 ar       
      10        2        4 1        
      11        2        1 1        
      12       15        5 ar       
      13        9        5 ar       
      14        9        6 ar       
      15       16        6 ar       
      16       16       12 1        
      17        4       12 1        
      18       12        3 2        
      19       18        1 1        
      20       19        1 1        
      21       20        1 1        
      22       21        2 1        
      23       22        2 1        
      24       23        5 1        
      25       24        6 1        
      26       25        7 1        
      27       26       13 1        
      28       27       15 1        
@<TRIPOS>SUBSTRUCTURE
 1 YZ9900 10 RESIDUE 4 A YZ9900 0 ROOT

