#        1GCZ_R01_S0001_C0000_L00005_S0001_C0010_G0010_E0001.mol2
#        Tue Jun  6 14:05:53 2017
#        Descriptor:     24    30    34    12     8    12
#        Energy - RMSD - RMSD MassCentre:     -69.5837    999.9999    999.9999
#        Receptor:       1  Surface Point:     1  Conformer:     0
#        Ligand:         5  Surface Point:     1  Conformer:    10
#        BUDE Formal Charge: 0
#        ATOM Count: 55
#        Heavy ATOM Count: 30
@<TRIPOS>MOLECULE
ZINC61464195_1GCZ_R01_S0001_C0000_L00005_S0001_C0010_G0010_E0001
 55 56 0 0 0
SMALL
USER_CHARGES
@<TRIPOS>ATOM
       1 C1        -0.5728    0.7284   -0.3692 C.3       1 <0>        -0.1456 
       2 C2        -0.7108   -0.4696    0.5658 C.3       1 <0>        -0.0579 
       3 C3         0.2158   -1.5890    0.0998 C.3       1 <0>        -0.1456 
       4 C4        -0.3350   -0.0578    1.9689 C.ar      1 <0>        -0.0771 
       5 C5        -1.3022   -0.1658    2.9751 C.ar      1 <0>        -0.0943 
       6 C6        -0.9590    0.1122    4.3036 C.ar      1 <0>        -0.0923 
       7 C7         0.3469    0.4918    4.6357 C.ar      1 <0>        -0.1041 
       8 C8         1.3070    0.6533    3.6298 C.ar      1 <0>        -0.1315 
       9 C9         0.9470    0.4064    2.2997 C.ar      1 <0>        -0.0969 
      10 S1         0.7761    0.7729    6.3297 S.3       1 <0>        -0.0341 
      11 C10        1.3613   -0.7823    7.0723 C.3       1 <0>        -0.1267 
      12 C11        2.5858   -1.2634    6.3311 C.2       1 <0>         0.4864 
      13 O1         2.4909   -2.1399    5.5245 O.2       1 <0>        -0.4815 
      14 O2         3.7883   -0.7028    6.5799 O.3       1 <0>        -0.3231 
      15 C12        3.8526    0.3426    7.5534 C.3       1 <0>         0.0526 
      16 C13        5.2776    0.8265    7.6778 C.2       1 <0>         0.5250 
      17 O3         5.8509    0.7767    8.7649 O.2       1 <0>        -0.5082 
      18 N1         5.9131    1.3064    6.6127 N.am      1 <0>        -0.5981 
      19 C14        5.2280    1.3659    5.3135 C.3       1 <0>         0.0731 
      20 C15        7.3003    1.7771    6.7355 C.3       1 <0>         0.1010 
      21 C16        8.1020    1.2927    5.5511 C.2       1 <0>         0.4997 
      22 O4         8.7656    2.0903    4.8906 O.2       1 <0>        -0.5061 
      23 N2         8.0900    0.0039    5.2228 N.am      1 <0>        -0.6702 
      24 C17        8.8412   -0.4501    4.1130 C.ar      1 <0>         0.1553 
      25 C18        8.2867   -1.3797    3.2253 C.ar      1 <0>        -0.1106 
      26 C19        9.0309   -1.8206    2.1245 C.ar      1 <0>        -0.0959 
      27 C20       10.3274   -1.3425    1.9140 C.ar      1 <0>        -0.1208 
      28 C21       10.8879   -0.4231    2.8087 C.ar      1 <0>        -0.0919 
      29 C22       10.1418    0.0247    3.9054 C.ar      1 <0>        -0.0639 
      30 Cl1       10.8364    1.1643    5.0220 Cl        1 <0>        -0.0632 
      31 H1         0.4595    1.0720   -0.3676 H         1 <0>         0.0596 
      32 H2        -0.8563    0.4350   -1.3779 H         1 <0>         0.0563 
      33 H3        -1.2234    1.5309   -0.0279 H         1 <0>         0.0575 
      34 H4        -1.7401   -0.8220    0.5553 H         1 <0>         0.0784 
      35 H5         0.1074   -2.4471    0.7600 H         1 <0>         0.0596 
      36 H6         1.2460   -1.2398    0.1241 H         1 <0>         0.0574 
      37 H7        -0.0464   -1.8767   -0.9162 H         1 <0>         0.0563 
      38 H8        -2.3108   -0.4769    2.7464 H         1 <0>         0.1285 
      39 H9        -1.6681    0.0387    5.1151 H         1 <0>         0.1293 
      40 H10        2.3056    0.9648    3.8989 H         1 <0>         0.1227 
      41 H11        1.6898    0.5704    1.5330 H         1 <0>         0.1262 
      42 H12        1.6136   -0.6137    8.1171 H         1 <0>         0.1329 
      43 H13        0.5782   -1.5346    7.0044 H         1 <0>         0.1329 
      44 H14        3.5135   -0.0356    8.5156 H         1 <0>         0.1063 
      45 H15        3.2157    1.1682    7.2427 H         1 <0>         0.1054 
      46 H16        4.3517    2.0056    5.3953 H         1 <0>         0.0686 
      47 H17        5.9056    1.7715    4.5652 H         1 <0>         0.0794 
      48 H18        4.9204    0.3642    5.0203 H         1 <0>         0.0778 
      49 H19        7.3125    2.8648    6.7620 H         1 <0>         0.1198 
      50 H20        7.7354    1.3864    7.6530 H         1 <0>         0.1233 
      51 H21        7.5447   -0.6502    5.7661 H         1 <0>         0.4142 
      52 H22        7.2855   -1.7532    3.3827 H         1 <0>         0.1473 
      53 H23        8.5984   -2.5322    1.4365 H         1 <0>         0.1337 
      54 H24       10.8996   -1.6800    1.0626 H         1 <0>         0.1349 
      55 H25       11.8919   -0.0577    2.6511 H         1 <0>         0.1385 
@<TRIPOS>BOND
       1        1        2 1        
       2        1       31 1        
       3        1       32 1        
       4        1       33 1        
       5        2        3 1        
       6        2        4 1        
       7        2       34 1        
       8        3       35 1        
       9        3       36 1        
      10        3       37 1        
      11        4        9 ar       
      12        4        5 ar       
      13        5        6 ar       
      14        5       38 1        
      15        6        7 ar       
      16        6       39 1        
      17        7        8 ar       
      18        7       10 1        
      19        8        9 ar       
      20        8       40 1        
      21        9       41 1        
      22       10       11 1        
      23       11       12 1        
      24       11       42 1        
      25       11       43 1        
      26       12       13 2        
      27       12       14 1        
      28       14       15 1        
      29       15       16 1        
      30       15       44 1        
      31       15       45 1        
      32       16       17 2        
      33       16       18 am       
      34       18       19 1        
      35       18       20 1        
      36       19       46 1        
      37       19       47 1        
      38       19       48 1        
      39       20       21 1        
      40       20       49 1        
      41       20       50 1        
      42       21       22 2        
      43       21       23 am       
      44       23       24 1        
      45       23       51 1        
      46       24       29 ar       
      47       24       25 ar       
      48       25       26 ar       
      49       25       52 1        
      50       26       27 ar       
      51       26       53 1        
      52       27       28 ar       
      53       27       54 1        
      54       28       29 ar       
      55       28       55 1        
      56       29       30 1        

