#        scan_R01_S0073_C0000_L00001_S0001_C0003_G0010_E0001.mol2
#        Mon Jun 19 14:14:47 2017
#        Descriptor:     30     2    34     2     2     4
#        Energy - RMSD - RMSD MassCentre:     -43.3315    999.9999    999.9999
#        Receptor:       1  Surface Point:    73  Conformer:     0
#        Ligand:         1  Surface Point:     1  Conformer:     3
#        BUDE Formal Charge: 0
#        ATOM Count: 27
#        Heavy ATOM Count: 17
@<TRIPOS>MOLECULE
pdb1gcz_ligA.pdb_scan_R01_S0073_C0000_L00001_S0001_C0003_G0010_E0001
27 28 1 0 0
SMALL
GASTEIGER
@<TRIPOS>ATOM
       1 C3        -5.7579    3.9817    2.1190 C.3       1 YZ9900      0.0513 
       2 C11       -5.1947    3.6787    0.7335 C.3       1 YZ9900      0.2089 
       3 O1        -3.0030    4.0092    2.1474 O.2       1 YZ9900     -0.2447 
       4 O2        -4.1798    2.6770    0.8411 O.3       1 YZ9900     -0.4453 
       5 C6         1.2735    1.4213    3.3744 C.ar      1 YZ9900      0.0063 
       6 C5        -0.9311    2.1980    2.4777 C.ar      1 YZ9900      0.0160 
       7 C4         0.9967   -1.0190    2.0592 C.ar      1 YZ9900      0.0796 
       8 O3        -1.1319   -0.3235    1.1678 O.2       1 YZ9900     -0.4208 
       9 C2         0.1322    1.1763    2.6035 C.ar      1 YZ9900      0.0353 
      10 C1        -0.0070   -0.0500    1.9427 C.ar      1 YZ9900      0.1519 
      11 C7        -2.1298    0.6414    1.0525 C.ar      1 YZ9900      0.3521 
      12 C12       -3.0944    2.9536    1.5948 C.2       1 YZ9900      0.3476 
      13 O4         3.0961   -1.7581    2.9133 O.3       1 YZ9900     -0.2865 
      14 O5        -3.1066    0.3816    0.3692 O.2       1 YZ9900     -0.2442 
      15 C10        2.2742    0.4487    3.4876 C.ar      1 YZ9900      0.0422 
      16 C9        -2.0172    1.9488    1.7367 C.ar      1 YZ9900      0.1515 
      17 C8         2.1410   -0.7795    2.8292 C.ar      1 YZ9900      0.1988 
      18 H31       -4.9615    4.3545    2.7599 H         1 YZ9900      0.0000 
      19 H32       -6.5393    4.7341    2.0355 H         1 YZ9900      0.0000 
      20 H33       -6.1736    3.0723    2.5477 H         1 YZ9900      0.0000 
      21 H112      -4.7660    4.5842    0.3095 H         1 YZ9900      0.0000 
      22 H113      -5.9926    3.3176    0.0880 H         1 YZ9900      0.0000 
      23 H6         1.3877    2.3650    3.8870 H         1 YZ9900      0.0000 
      24 H5        -0.8143    3.1408    2.9914 H         1 YZ9900      0.0000 
      25 H4         0.8849   -1.9636    1.5475 H         1 YZ9900      0.0000 
      26 HO4        2.8322   -2.5450    2.4113 H         1 YZ9900      0.0000 
      27 H10        3.1454    0.6629    4.0888 H         1 YZ9900      0.0000 
@<TRIPOS>BOND
       1       13       17 1        
       2        7       17 ar       
       3        7       10 ar       
       4        8       10 ar       
       5        8       11 ar       
       6       14       11 2        
       7       17       15 ar       
       8       10        9 ar       
       9       11       16 ar       
      10        2        4 1        
      11        2        1 1        
      12       15        5 ar       
      13        9        5 ar       
      14        9        6 ar       
      15       16        6 ar       
      16       16       12 1        
      17        4       12 1        
      18       12        3 2        
      19       18        1 1        
      20       19        1 1        
      21       20        1 1        
      22       21        2 1        
      23       22        2 1        
      24       23        5 1        
      25       24        6 1        
      26       25        7 1        
      27       26       13 1        
      28       27       15 1        
@<TRIPOS>SUBSTRUCTURE
 1 YZ9900 10 RESIDUE 4 A YZ9900 0 ROOT

