#        scan_R01_S0074_C0000_L00001_S0001_C0000_G0010_E0001.mol2
#        Mon Jun 19 14:14:48 2017
#        Descriptor:      3     1    16     3     3     5
#        Energy - RMSD - RMSD MassCentre:     -46.6979    999.9999    999.9999
#        Receptor:       1  Surface Point:    74  Conformer:     0
#        Ligand:         1  Surface Point:     1  Conformer:     0
#        BUDE Formal Charge: 0
#        ATOM Count: 27
#        Heavy ATOM Count: 17
@<TRIPOS>MOLECULE
pdb1gcz_ligA.pdb_scan_R01_S0074_C0000_L00001_S0001_C0000_G0010_E0001
27 28 1 0 0
SMALL
GASTEIGER
@<TRIPOS>ATOM
       1 C3        -0.8954    5.7236    2.6381 C.3       1 YZ9900      0.0513 
       2 C11       -0.2861    4.6212    1.8199 C.3       1 YZ9900      0.2089 
       3 O1         2.0738    4.0696    4.2350 O.2       1 YZ9900     -0.2447 
       4 O2         1.1290    4.4310    2.2223 O.3       1 YZ9900     -0.4453 
       5 C6         0.8567   -0.9511    5.1625 C.ar      1 YZ9900      0.0063 
       6 C5         1.3372    1.3534    4.2579 C.ar      1 YZ9900      0.0160 
       7 C4         0.9954   -2.0155    2.4279 C.ar      1 YZ9900      0.0796 
       8 O3         1.4499    0.2238    1.6744 O.2       1 YZ9900     -0.4208 
       9 C2         1.1248   -0.1129    4.0542 C.ar      1 YZ9900      0.0353 
      10 C1         1.1889   -0.6494    2.7315 C.ar      1 YZ9900      0.1519 
      11 C7         1.5691    1.5239    1.8198 C.ar      1 YZ9900      0.3521 
      12 C12        1.5843    3.6357    3.2368 C.2       1 YZ9900      0.3476 
      13 O4         0.5187   -4.1368    3.4154 O.3       1 YZ9900     -0.2865 
      14 O5         1.7372    2.1774    0.8693 O.2       1 YZ9900     -0.2442 
      15 C10        0.6513   -2.3386    4.9097 C.ar      1 YZ9900      0.0422 
      16 C9         1.4896    2.1420    3.1498 C.ar      1 YZ9900      0.1515 
      17 C8         0.7249   -2.8191    3.5826 C.ar      1 YZ9900      0.1988 
      18 H31       -0.8276    5.4713    3.6965 H         1 YZ9900      0.0000 
      19 H32       -0.3583    6.6535    2.4515 H         1 YZ9900      0.0000 
      20 H33       -1.9421    5.8464    2.3600 H         1 YZ9900      0.0000 
      21 H112      -0.3310    4.8857    0.7634 H         1 YZ9900      0.0000 
      22 H113      -0.8388    3.6966    1.9869 H         1 YZ9900      0.0000 
      23 H6         0.8096   -0.5531    6.1652 H         1 YZ9900      0.0000 
      24 H5         1.3694    1.7777    5.2505 H         1 YZ9900      0.0000 
      25 H4         1.0464   -2.4141    1.4254 H         1 YZ9900      0.0000 
      26 HO4       -0.4083   -4.3374    3.5637 H         1 YZ9900      0.0000 
      27 H10        0.4413   -3.0162    5.7242 H         1 YZ9900      0.0000 
@<TRIPOS>BOND
       1       13       17 1        
       2        7       17 ar       
       3        7       10 ar       
       4        8       10 ar       
       5        8       11 ar       
       6       14       11 2        
       7       17       15 ar       
       8       10        9 ar       
       9       11       16 ar       
      10        2        4 1        
      11        2        1 1        
      12       15        5 ar       
      13        9        5 ar       
      14        9        6 ar       
      15       16        6 ar       
      16       16       12 1        
      17        4       12 1        
      18       12        3 2        
      19       18        1 1        
      20       19        1 1        
      21       20        1 1        
      22       21        2 1        
      23       22        2 1        
      24       23        5 1        
      25       24        6 1        
      26       25        7 1        
      27       26       13 1        
      28       27       15 1        
@<TRIPOS>SUBSTRUCTURE
 1 YZ9900 10 RESIDUE 4 A YZ9900 0 ROOT

