#        scan_R01_S0074_C0000_L00001_S0001_C0002_G0010_E0001.mol2
#        Mon Jun 19 14:14:48 2017
#        Descriptor:     14    35    24     3     3     6
#        Energy - RMSD - RMSD MassCentre:     -41.8647    999.9999    999.9999
#        Receptor:       1  Surface Point:    74  Conformer:     0
#        Ligand:         1  Surface Point:     1  Conformer:     2
#        BUDE Formal Charge: 0
#        ATOM Count: 27
#        Heavy ATOM Count: 17
@<TRIPOS>MOLECULE
pdb1gcz_ligA.pdb_scan_R01_S0074_C0000_L00001_S0001_C0002_G0010_E0001
27 28 1 0 0
SMALL
GASTEIGER
@<TRIPOS>ATOM
       1 C3         4.1185    7.6703    4.6533 C.3       1 YZ9900      0.0513 
       2 C11        3.0804    7.1387    3.6693 C.3       1 YZ9900      0.2089 
       3 O1         1.3608    5.6993    2.2971 O.2       1 YZ9900     -0.2447 
       4 O2         2.7991    5.7689    3.9682 O.3       1 YZ9900     -0.4453 
       5 C6        -0.5529    0.9217    2.2356 C.ar      1 YZ9900      0.0063 
       6 C5         0.6822    3.0452    2.7183 C.ar      1 YZ9900      0.0160 
       7 C4         0.7339   -0.3573    4.3497 C.ar      1 YZ9900      0.0796 
       8 O3         1.9507    1.6597    4.8598 O.2       1 YZ9900     -0.4208 
       9 C2         0.3751    1.6269    3.0092 C.ar      1 YZ9900      0.0353 
      10 C1         1.0218    0.9842    4.0715 C.ar      1 YZ9900      0.1519 
      11 C7         2.2363    2.9945    4.5820 C.ar      1 YZ9900      0.3521 
      12 C12        1.8971    5.1248    3.1973 C.2       1 YZ9900      0.3476 
      13 O4        -0.4425   -2.3790    3.8896 O.3       1 YZ9900     -0.2865 
      14 O5         3.0528    3.5675    5.2845 O.2       1 YZ9900     -0.2442 
      15 C10       -0.8371   -0.4197    2.5182 C.ar      1 YZ9900      0.0422 
      16 C9         1.5724    3.7064    3.4673 C.ar      1 YZ9900      0.1515 
      17 C8        -0.1938   -1.0680    3.5791 C.ar      1 YZ9900      0.1988 
      18 H31        5.0361    7.0932    4.5583 H         1 YZ9900      0.0000 
      19 H32        4.3227    8.7162    4.4341 H         1 YZ9900      0.0000 
      20 H33        3.7357    7.5797    5.6676 H         1 YZ9900      0.0000 
      21 H112       3.4678    7.2158    2.6554 H         1 YZ9900      0.0000 
      22 H113       2.1666    7.7229    3.7543 H         1 YZ9900      0.0000 
      23 H6        -1.0557    1.4110    1.4145 H         1 YZ9900      0.0000 
      24 H5         0.1779    3.5320    1.8966 H         1 YZ9900      0.0000 
      25 H4         1.2353   -0.8488    5.1704 H         1 YZ9900      0.0000 
      26 HO4        0.1019   -2.6678    4.6388 H         1 YZ9900      0.0000 
      27 H10       -1.5575   -0.9414    1.9058 H         1 YZ9900      0.0000 
@<TRIPOS>BOND
       1       13       17 1        
       2        7       17 ar       
       3        7       10 ar       
       4        8       10 ar       
       5        8       11 ar       
       6       14       11 2        
       7       17       15 ar       
       8       10        9 ar       
       9       11       16 ar       
      10        2        4 1        
      11        2        1 1        
      12       15        5 ar       
      13        9        5 ar       
      14        9        6 ar       
      15       16        6 ar       
      16       16       12 1        
      17        4       12 1        
      18       12        3 2        
      19       18        1 1        
      20       19        1 1        
      21       20        1 1        
      22       21        2 1        
      23       22        2 1        
      24       23        5 1        
      25       24        6 1        
      26       25        7 1        
      27       26       13 1        
      28       27       15 1        
@<TRIPOS>SUBSTRUCTURE
 1 YZ9900 10 RESIDUE 4 A YZ9900 0 ROOT

