#        scan_R01_S0074_C0000_L00001_S0001_C0003_G0010_E0001.mol2
#        Mon Jun 19 14:42:57 2017
#        Descriptor:      8    20    35     3     3     5
#        Energy - RMSD - RMSD MassCentre:     -41.1168    999.9999    999.9999
#        Receptor:       1  Surface Point:    74  Conformer:     0
#        Ligand:         1  Surface Point:     1  Conformer:     3
#        BUDE Formal Charge: 0
#        ATOM Count: 27
#        Heavy ATOM Count: 17
@<TRIPOS>MOLECULE
pdb1gcz_ligA.pdb_scan_R01_S0074_C0000_L00001_S0001_C0003_G0010_E0001
27 28 1 0 0
SMALL
GASTEIGER
@<TRIPOS>ATOM
       1 C3         6.1021   -2.8631    5.8401 C.3       1 YZ9900      0.0513 
       2 C11        6.5439   -1.8782    4.7614 C.3       1 YZ9900      0.2089 
       3 O1         4.2471   -2.7306    3.8072 O.2       1 YZ9900     -0.2447 
       4 O2         5.4595   -1.0014    4.4448 O.3       1 YZ9900     -0.4453 
       5 C6        -0.2926   -0.8341    2.2957 C.ar      1 YZ9900      0.0063 
       6 C5         2.0376   -1.1981    3.1353 C.ar      1 YZ9900      0.0160 
       7 C4        -0.0459    1.9147    2.6762 C.ar      1 YZ9900      0.0796 
       8 O3         2.2030    1.6232    3.4928 O.2       1 YZ9900     -0.4208 
       9 C2         0.9021   -0.3099    2.8005 C.ar      1 YZ9900      0.0353 
      10 C1         1.0261    1.0713    2.9918 C.ar      1 YZ9900      0.1519 
      11 C7         3.2689    0.7831    3.8064 C.ar      1 YZ9900      0.3521 
      12 C12        4.3241   -1.5479    3.9600 C.2       1 YZ9900      0.3476 
      13 O4        -2.2649    2.2606    1.8766 O.3       1 YZ9900     -0.2865 
      14 O5         4.2904    1.2868    4.2438 O.2       1 YZ9900     -0.2442 
      15 C10       -1.3615    0.0138    1.9818 C.ar      1 YZ9900      0.0422 
      16 C9         3.1742   -0.6817    3.6175 C.ar      1 YZ9900      0.1515 
      17 C8        -1.2438    1.3958    2.1707 C.ar      1 YZ9900      0.1988 
      18 H31        5.2672   -3.4547    5.4701 H         1 YZ9900      0.0000 
      19 H32        6.9312   -3.5215    6.0906 H         1 YZ9900      0.0000 
      20 H33        5.7935   -2.3140    6.7272 H         1 YZ9900      0.0000 
      21 H112       6.8394   -2.4255    3.8688 H         1 YZ9900      0.0000 
      22 H113       7.3867   -1.2946    5.1255 H         1 YZ9900      0.0000 
      23 H6        -0.3956   -1.8987    2.1456 H         1 YZ9900      0.0000 
      24 H5         1.9320   -2.2622    2.9842 H         1 YZ9900      0.0000 
      25 H4         0.0545    2.9797    2.8254 H         1 YZ9900      0.0000 
      26 HO4       -2.0166    3.1749    2.0849 H         1 YZ9900      0.0000 
      27 H10       -2.2730   -0.4162    1.5936 H         1 YZ9900      0.0000 
@<TRIPOS>BOND
       1       13       17 1        
       2        7       17 ar       
       3        7       10 ar       
       4        8       10 ar       
       5        8       11 ar       
       6       14       11 2        
       7       17       15 ar       
       8       10        9 ar       
       9       11       16 ar       
      10        2        4 1        
      11        2        1 1        
      12       15        5 ar       
      13        9        5 ar       
      14        9        6 ar       
      15       16        6 ar       
      16       16       12 1        
      17        4       12 1        
      18       12        3 2        
      19       18        1 1        
      20       19        1 1        
      21       20        1 1        
      22       21        2 1        
      23       22        2 1        
      24       23        5 1        
      25       24        6 1        
      26       25        7 1        
      27       26       13 1        
      28       27       15 1        
@<TRIPOS>SUBSTRUCTURE
 1 YZ9900 10 RESIDUE 4 A YZ9900 0 ROOT

