#        scan_R01_S0074_C0000_L00001_S0001_C0003_G0010_E0001.mol2
#        Mon Jun 19 14:14:49 2017
#        Descriptor:     34    19     7     3     3     6
#        Energy - RMSD - RMSD MassCentre:     -41.3912    999.9999    999.9999
#        Receptor:       1  Surface Point:    74  Conformer:     0
#        Ligand:         1  Surface Point:     1  Conformer:     3
#        BUDE Formal Charge: 0
#        ATOM Count: 27
#        Heavy ATOM Count: 17
@<TRIPOS>MOLECULE
pdb1gcz_ligA.pdb_scan_R01_S0074_C0000_L00001_S0001_C0003_G0010_E0001
27 28 1 0 0
SMALL
GASTEIGER
@<TRIPOS>ATOM
       1 C3         3.4989    7.2716    2.1443 C.3       1 YZ9900      0.0513 
       2 C11        2.5348    7.2700    3.3272 C.3       1 YZ9900      0.2089 
       3 O1         1.4637    5.4559    1.7544 O.2       1 YZ9900     -0.2447 
       4 O2         2.2948    5.9232    3.7436 O.3       1 YZ9900     -0.4453 
       5 C6         0.0904    0.4974    1.8903 C.ar      1 YZ9900      0.0063 
       6 C5         0.9219    2.8090    2.3728 C.ar      1 YZ9900      0.0160 
       7 C4         0.7575   -0.3262    4.4667 C.ar      1 YZ9900      0.0796 
       8 O3         1.5724    1.8818    4.9865 O.2       1 YZ9900     -0.4208 
       9 C2         0.6643    1.4101    2.7816 C.ar      1 YZ9900      0.0353 
      10 C1         0.9996    0.9963    4.0763 C.ar      1 YZ9900      0.1519 
      11 C7         1.8128    3.1974    4.5969 C.ar      1 YZ9900      0.3521 
      12 C12        1.7393    5.0744    2.8527 C.2       1 YZ9900      0.3476 
      13 O4        -0.0345   -2.5271    4.0067 O.3       1 YZ9900     -0.2865 
      14 O5         2.3151    3.9564    5.4093 O.2       1 YZ9900     -0.2442 
      15 C10       -0.1496   -0.8239    2.2859 C.ar      1 YZ9900      0.0422 
      16 C9         1.4716    3.6704    3.2368 C.ar      1 YZ9900      0.1515 
      17 C8         0.1834   -1.2439    3.5791 C.ar      1 YZ9900      0.1988 
      18 H31        3.0573    6.7204    1.3167 H         1 YZ9900      0.0000 
      19 H32        3.6919    8.2970    1.8360 H         1 YZ9900      0.0000 
      20 H33        4.4335    6.7987    2.4384 H         1 YZ9900      0.0000 
      21 H112       1.5946    7.7301    3.0303 H         1 YZ9900      0.0000 
      22 H113       2.9698    7.8316    4.1512 H         1 YZ9900      0.0000 
      23 H6        -0.1708    0.8095    0.8899 H         1 YZ9900      0.0000 
      24 H5         0.6597    3.1184    1.3718 H         1 YZ9900      0.0000 
      25 H4         1.0178   -0.6407    5.4667 H         1 YZ9900      0.0000 
      26 HO4        0.2711   -2.6456    4.9197 H         1 YZ9900      0.0000 
      27 H10       -0.5937   -1.5086    1.5786 H         1 YZ9900      0.0000 
@<TRIPOS>BOND
       1       13       17 1        
       2        7       17 ar       
       3        7       10 ar       
       4        8       10 ar       
       5        8       11 ar       
       6       14       11 2        
       7       17       15 ar       
       8       10        9 ar       
       9       11       16 ar       
      10        2        4 1        
      11        2        1 1        
      12       15        5 ar       
      13        9        5 ar       
      14        9        6 ar       
      15       16        6 ar       
      16       16       12 1        
      17        4       12 1        
      18       12        3 2        
      19       18        1 1        
      20       19        1 1        
      21       20        1 1        
      22       21        2 1        
      23       22        2 1        
      24       23        5 1        
      25       24        6 1        
      26       25        7 1        
      27       26       13 1        
      28       27       15 1        
@<TRIPOS>SUBSTRUCTURE
 1 YZ9900 10 RESIDUE 4 A YZ9900 0 ROOT

