#        1GCZ_R01_S0001_C0000_L00005_S0001_C0011_G0010_E0001.mol2
#        Tue Jun  6 09:55:38 2017
#        Descriptor:     20     3    28    11     9    14
#        Energy - RMSD - RMSD MassCentre:     -63.5196    999.9999    999.9999
#        Receptor:       1  Surface Point:     1  Conformer:     0
#        Ligand:         5  Surface Point:     1  Conformer:    11
#        BUDE Formal Charge: 0
#        ATOM Count: 55
#        Heavy ATOM Count: 30
@<TRIPOS>MOLECULE
ZINC61464195_1GCZ_R01_S0001_C0000_L00005_S0001_C0011_G0010_E0001
 55 56 0 0 0
SMALL
USER_CHARGES
@<TRIPOS>ATOM
       1 C1        -0.6989   -2.5141    0.8944 C.3       1 <0>        -0.1456 
       2 C2        -0.0084   -1.1536    0.9215 C.3       1 <0>        -0.0579 
       3 C3        -0.8424   -0.1433    0.1390 C.3       1 <0>        -0.1456 
       4 C4         0.1312   -0.6896    2.3515 C.ar      1 <0>        -0.0771 
       5 C5         1.4181   -0.4679    2.8560 C.ar      1 <0>        -0.0943 
       6 C6         1.5804    0.0574    4.1435 C.ar      1 <0>        -0.0923 
       7 C7         0.4647    0.3694    4.9295 C.ar      1 <0>        -0.1041 
       8 C8        -0.8246    0.1023    4.4539 C.ar      1 <0>        -0.1315 
       9 C9        -0.9774   -0.4548    3.1787 C.ar      1 <0>        -0.0969 
      10 S1         0.6916    1.0956    6.5277 S.3       1 <0>        -0.0341 
      11 C10        0.7117    2.9088    6.3717 C.3       1 <0>        -0.1267 
      12 C11        0.9053    3.5282    7.7352 C.2       1 <0>         0.4864 
      13 O1        -0.0303    3.9802    8.3253 O.2       1 <0>        -0.4815 
      14 O2         2.1363    3.5713    8.2878 O.3       1 <0>        -0.3231 
      15 C12        2.2705    4.1677    9.5806 C.3       1 <0>         0.0526 
      16 C13        3.7168    4.1134   10.0112 C.2       1 <0>         0.5250 
      17 O3         4.3185    5.1529   10.2762 O.2       1 <0>        -0.5082 
      18 N1         4.3404    2.9424   10.1041 N.am      1 <0>        -0.5981 
      19 C14        3.6212    1.7001    9.7875 C.3       1 <0>         0.0731 
      20 C15        5.7484    2.8914   10.5234 C.3       1 <0>         0.1010 
      21 C16        6.4955    1.9065    9.6561 C.2       1 <0>         0.4997 
      22 O4         7.1716    1.0199   10.1753 O.2       1 <0>        -0.5061 
      23 N2         6.4219    1.9984    8.3313 N.am      1 <0>        -0.6702 
      24 C17        7.1220    1.0755    7.5186 C.ar      1 <0>         0.1553 
      25 C18        8.2036    0.3593    8.0447 C.ar      1 <0>        -0.1106 
      26 C19        8.8888   -0.5580    7.2390 C.ar      1 <0>        -0.0959 
      27 C20        8.5021   -0.7546    5.9104 C.ar      1 <0>        -0.1208 
      28 C21        7.4290   -0.0290    5.3793 C.ar      1 <0>        -0.0919 
      29 C22        6.7379    0.8827    6.1861 C.ar      1 <0>        -0.0639 
      30 Cl1        5.4063    1.7895    5.5288 Cl        1 <0>        -0.0632 
      31 H1        -1.6899   -2.4260    1.3344 H         1 <0>         0.0596 
      32 H2        -0.7874   -2.8546   -0.1353 H         1 <0>         0.0563 
      33 H3        -0.1105   -3.2301    1.4644 H         1 <0>         0.0575 
      34 H4         0.9780   -1.2376    0.4703 H         1 <0>         0.0784 
      35 H5        -0.3429    0.8232    0.1485 H         1 <0>         0.0596 
      36 H6        -1.8236   -0.0497    0.5995 H         1 <0>         0.0574 
      37 H7        -0.9542   -0.4843   -0.8882 H         1 <0>         0.0563 
      38 H8         2.2935   -0.6812    2.2607 H         1 <0>         0.1285 
      39 H9         2.5516    0.2503    4.5748 H         1 <0>         0.1293 
      40 H10       -1.6751    0.3309    5.0789 H         1 <0>         0.1227 
      41 H11       -1.9768   -0.6876    2.8421 H         1 <0>         0.1262 
      42 H12        1.5289    3.2082    5.7187 H         1 <0>         0.1329 
      43 H13       -0.2326    3.2477    5.9509 H         1 <0>         0.1329 
      44 H14        1.6587    3.6232   10.2971 H         1 <0>         0.1063 
      45 H15        1.9441    5.2046    9.5382 H         1 <0>         0.1054 
      46 H16        3.2883    1.7285    8.7521 H         1 <0>         0.0686 
      47 H17        4.2850    0.8505    9.9327 H         1 <0>         0.0794 
      48 H18        2.7588    1.6037   10.4439 H         1 <0>         0.0778 
      49 H19        6.1935    3.8786   10.4182 H         1 <0>         0.1198 
      50 H20        5.8054    2.5759   11.5632 H         1 <0>         0.1233 
      51 H21        5.8663    2.7268    7.9060 H         1 <0>         0.4142 
      52 H22        8.5077    0.5071    9.0705 H         1 <0>         0.1473 
      53 H23        9.7184   -1.1151    7.6491 H         1 <0>         0.1337 
      54 H24        9.0284   -1.4652    5.2905 H         1 <0>         0.1349 
      55 H25        7.1329   -0.1750    4.3510 H         1 <0>         0.1385 
@<TRIPOS>BOND
       1        1        2 1        
       2        1       31 1        
       3        1       32 1        
       4        1       33 1        
       5        2        3 1        
       6        2        4 1        
       7        2       34 1        
       8        3       35 1        
       9        3       36 1        
      10        3       37 1        
      11        4        9 ar       
      12        4        5 ar       
      13        5        6 ar       
      14        5       38 1        
      15        6        7 ar       
      16        6       39 1        
      17        7        8 ar       
      18        7       10 1        
      19        8        9 ar       
      20        8       40 1        
      21        9       41 1        
      22       10       11 1        
      23       11       12 1        
      24       11       42 1        
      25       11       43 1        
      26       12       13 2        
      27       12       14 1        
      28       14       15 1        
      29       15       16 1        
      30       15       44 1        
      31       15       45 1        
      32       16       17 2        
      33       16       18 am       
      34       18       19 1        
      35       18       20 1        
      36       19       46 1        
      37       19       47 1        
      38       19       48 1        
      39       20       21 1        
      40       20       49 1        
      41       20       50 1        
      42       21       22 2        
      43       21       23 am       
      44       23       24 1        
      45       23       51 1        
      46       24       29 ar       
      47       24       25 ar       
      48       25       26 ar       
      49       25       52 1        
      50       26       27 ar       
      51       26       53 1        
      52       27       28 ar       
      53       27       54 1        
      54       28       29 ar       
      55       28       55 1        
      56       29       30 1        

