#        scan_R01_S0075_C0000_L00001_S0001_C0000_G0010_E0001.mol2
#        Mon Jun 19 14:14:50 2017
#        Descriptor:     30     1     1     2     3     1
#        Energy - RMSD - RMSD MassCentre:     -79.4029    999.9999    999.9999
#        Receptor:       1  Surface Point:    75  Conformer:     0
#        Ligand:         1  Surface Point:     1  Conformer:     0
#        BUDE Formal Charge: 0
#        ATOM Count: 27
#        Heavy ATOM Count: 17
@<TRIPOS>MOLECULE
pdb1gcz_ligA.pdb_scan_R01_S0075_C0000_L00001_S0001_C0000_G0010_E0001
27 28 1 0 0
SMALL
GASTEIGER
@<TRIPOS>ATOM
       1 C3         2.6993    0.5152    3.3028 C.3       1 YZ9900      0.0513 
       2 C11        1.9074   -0.2752    2.3008 C.3       1 YZ9900      0.2089 
       3 O1        -0.5190    2.1363    2.2465 O.2       1 YZ9900     -0.2447 
       4 O2         0.4799    0.1214    2.3750 O.3       1 YZ9900     -0.4453 
       5 C6        -0.2086    3.2196   -2.8797 C.ar      1 YZ9900      0.0063 
       6 C5        -0.2729    2.2443   -0.5549 C.ar      1 YZ9900      0.0160 
       7 C4        -0.5256    0.5163   -3.9850 C.ar      1 YZ9900      0.0796 
       8 O3        -0.5763   -0.3059   -1.7244 O.2       1 YZ9900     -0.4208 
       9 C2        -0.3218    2.0852   -2.0412 C.ar      1 YZ9900      0.0353 
      10 C1        -0.4760    0.7784   -2.5977 C.ar      1 YZ9900      0.1519 
      11 C7        -0.4647   -0.1995   -0.4199 C.ar      1 YZ9900      0.3521 
      12 C12       -0.1111    1.1551    1.7034 C.2       1 YZ9900      0.3476 
      13 O4        -0.4328    1.5692   -6.1263 O.3       1 YZ9900     -0.2865 
      14 O5        -0.5125   -1.1699    0.2241 O.2       1 YZ9900     -0.2442 
      15 C10       -0.2502    3.0092   -4.2887 C.ar      1 YZ9900      0.0422 
      16 C9        -0.2810    1.1125    0.2144 C.ar      1 YZ9900      0.1515 
      17 C8        -0.4040    1.6961   -4.7885 C.ar      1 YZ9900      0.1988 
      18 H31        2.5854    1.5799    3.0984 H         1 YZ9900      0.0000 
      19 H32        2.3351    0.2972    4.3068 H         1 YZ9900      0.0000 
      20 H33        3.7520    0.2419    3.2309 H         1 YZ9900      0.0000 
      21 H112       2.0009   -1.3386    2.5213 H         1 YZ9900      0.0000 
      22 H113       2.2880   -0.0770    1.2988 H         1 YZ9900      0.0000 
      23 H6        -0.0946    4.2107   -2.4662 H         1 YZ9900      0.0000 
      24 H5        -0.2323    3.2238   -0.1019 H         1 YZ9900      0.0000 
      25 H4        -0.6434   -0.4744   -4.3985 H         1 YZ9900      0.0000 
      26 HO4        0.4439    1.7305   -6.4826 H         1 YZ9900      0.0000 
      27 H10       -0.1652    3.8447   -4.9678 H         1 YZ9900      0.0000 
@<TRIPOS>BOND
       1       13       17 1        
       2        7       17 ar       
       3        7       10 ar       
       4        8       10 ar       
       5        8       11 ar       
       6       14       11 2        
       7       17       15 ar       
       8       10        9 ar       
       9       11       16 ar       
      10        2        4 1        
      11        2        1 1        
      12       15        5 ar       
      13        9        5 ar       
      14        9        6 ar       
      15       16        6 ar       
      16       16       12 1        
      17        4       12 1        
      18       12        3 2        
      19       18        1 1        
      20       19        1 1        
      21       20        1 1        
      22       21        2 1        
      23       22        2 1        
      24       23        5 1        
      25       24        6 1        
      26       25        7 1        
      27       26       13 1        
      28       27       15 1        
@<TRIPOS>SUBSTRUCTURE
 1 YZ9900 10 RESIDUE 4 A YZ9900 0 ROOT

