#        scan_R01_S0075_C0000_L00001_S0001_C0002_G0010_E0001.mol2
#        Mon Jun 19 14:42:59 2017
#        Descriptor:     20    10     7     1     2     2
#        Energy - RMSD - RMSD MassCentre:     -78.0577    999.9999    999.9999
#        Receptor:       1  Surface Point:    75  Conformer:     0
#        Ligand:         1  Surface Point:     1  Conformer:     2
#        BUDE Formal Charge: 0
#        ATOM Count: 27
#        Heavy ATOM Count: 17
@<TRIPOS>MOLECULE
pdb1gcz_ligA.pdb_scan_R01_S0075_C0000_L00001_S0001_C0002_G0010_E0001
27 28 1 0 0
SMALL
GASTEIGER
@<TRIPOS>ATOM
       1 C3        -0.4880    2.0758   -7.0763 C.3       1 YZ9900      0.0513 
       2 C11       -0.5888    2.8961   -5.7935 C.3       1 YZ9900      0.2089 
       3 O1        -0.7762    3.7518   -3.3147 O.2       1 YZ9900     -0.2447 
       4 O2        -0.6607    2.0149   -4.6696 O.3       1 YZ9900     -0.4453 
       5 C6        -1.1000    1.8449    1.4550 C.ar      1 YZ9900      0.0063 
       6 C5        -0.9259    2.2113   -1.0154 C.ar      1 YZ9900      0.0160 
       7 C4        -1.0453   -0.9167    1.0922 C.ar      1 YZ9900      0.0796 
       8 O3        -0.8766   -0.6232   -1.2941 O.2       1 YZ9900     -0.4208 
       9 C2        -1.0014    1.3186    0.1627 C.ar      1 YZ9900      0.0353 
      10 C1        -0.9740   -0.0691   -0.0197 C.ar      1 YZ9900      0.1519 
      11 C7        -0.8057    0.2212   -2.3997 C.ar      1 YZ9900      0.3521 
      12 C12       -0.7550    2.5636   -3.4397 C.2       1 YZ9900      0.3476 
      13 O4        -1.2111   -1.2650    3.4447 O.3       1 YZ9900     -0.2865 
      14 O5        -0.7207   -0.2845   -3.5067 O.2       1 YZ9900     -0.2442 
      15 C10       -1.1710    0.9927    2.5635 C.ar      1 YZ9900      0.0422 
      16 C9        -0.8320    1.6928   -2.2455 C.ar      1 YZ9900      0.1515 
      17 C8        -1.1440   -0.3958    2.3878 C.ar      1 YZ9900      0.1988 
      18 H31       -1.3720    1.4492   -7.1757 H         1 YZ9900      0.0000 
      19 H32       -0.4200    2.7464   -7.9303 H         1 YZ9900      0.0000 
      20 H33        0.3996    1.4480   -7.0357 H         1 YZ9900      0.0000 
      21 H112      -1.4837    3.5141   -5.8267 H         1 YZ9900      0.0000 
      22 H113       0.2886    3.5323   -5.6992 H         1 YZ9900      0.0000 
      23 H6        -1.1217    2.9145    1.6034 H         1 YZ9900      0.0000 
      24 H5        -0.9478    3.2805   -0.8641 H         1 YZ9900      0.0000 
      25 H4        -1.0238   -1.9867    0.9465 H         1 YZ9900      0.0000 
      26 HO4       -1.1974   -2.1855    3.1388 H         1 YZ9900      0.0000 
      27 H10       -1.2466    1.4244    3.5505 H         1 YZ9900      0.0000 
@<TRIPOS>BOND
       1       13       17 1        
       2        7       17 ar       
       3        7       10 ar       
       4        8       10 ar       
       5        8       11 ar       
       6       14       11 2        
       7       17       15 ar       
       8       10        9 ar       
       9       11       16 ar       
      10        2        4 1        
      11        2        1 1        
      12       15        5 ar       
      13        9        5 ar       
      14        9        6 ar       
      15       16        6 ar       
      16       16       12 1        
      17        4       12 1        
      18       12        3 2        
      19       18        1 1        
      20       19        1 1        
      21       20        1 1        
      22       21        2 1        
      23       22        2 1        
      24       23        5 1        
      25       24        6 1        
      26       25        7 1        
      27       26       13 1        
      28       27       15 1        
@<TRIPOS>SUBSTRUCTURE
 1 YZ9900 10 RESIDUE 4 A YZ9900 0 ROOT

