#        scan_R01_S0075_C0000_L00001_S0001_C0002_G0010_E0001.mol2
#        Mon Jun 19 14:14:51 2017
#        Descriptor:      1     8    25     1     2     3
#        Energy - RMSD - RMSD MassCentre:     -78.2157    999.9999    999.9999
#        Receptor:       1  Surface Point:    75  Conformer:     0
#        Ligand:         1  Surface Point:     1  Conformer:     2
#        BUDE Formal Charge: 0
#        ATOM Count: 27
#        Heavy ATOM Count: 17
@<TRIPOS>MOLECULE
pdb1gcz_ligA.pdb_scan_R01_S0075_C0000_L00001_S0001_C0002_G0010_E0001
27 28 1 0 0
SMALL
GASTEIGER
@<TRIPOS>ATOM
       1 C3        -0.3347    2.0479   -6.0717 C.3       1 YZ9900      0.0513 
       2 C11       -0.2584    2.8569   -4.7801 C.3       1 YZ9900      0.2089 
       3 O1        -0.2284    3.7004   -2.2902 O.2       1 YZ9900     -0.2447 
       4 O2        -0.4492    1.9866   -3.6615 O.3       1 YZ9900     -0.4453 
       5 C6        -0.7428    1.8162    2.4718 C.ar      1 YZ9900      0.0063 
       6 C5        -0.5764    2.1789    0.0003 C.ar      1 YZ9900      0.0160 
       7 C4        -1.1716   -0.9094    2.0858 C.ar      1 YZ9900      0.0796 
       8 O3        -1.0206   -0.6186   -0.3020 O.2       1 YZ9900     -0.4208 
       9 C2        -0.7712    1.2973    1.1730 C.ar      1 YZ9900      0.0353 
      10 C1        -0.9868   -0.0722    0.9790 C.ar      1 YZ9900      0.1519 
      11 C7        -0.8366    0.2153   -1.4026 C.ar      1 YZ9900      0.3521 
      12 C12       -0.4143    2.5277   -2.4251 C.2       1 YZ9900      0.3476 
      13 O4        -1.3299   -1.2541    4.4393 O.3       1 YZ9900     -0.2865 
      14 O5        -0.8699   -0.2833   -2.5155 O.2       1 YZ9900     -0.2442 
      15 C10       -0.9282    0.9745    3.5751 C.ar      1 YZ9900      0.0422 
      16 C9        -0.6064    1.6677   -1.2361 C.ar      1 YZ9900      0.1515 
      17 C8        -1.1440   -0.3958    3.3878 C.ar      1 YZ9900      0.1988 
      18 H31       -1.3153    1.5829   -6.1502 H         1 YZ9900      0.0000 
      19 H32       -0.1763    2.7078   -6.9220 H         1 YZ9900      0.0000 
      20 H33        0.4332    1.2772   -6.0620 H         1 YZ9900      0.0000 
      21 H112      -1.0349    3.6191   -4.7823 H         1 YZ9900      0.0000 
      22 H113       0.7173    3.3326   -4.7064 H         1 YZ9900      0.0000 
      23 H6        -0.5770    2.8717    2.6292 H         1 YZ9900      0.0000 
      24 H5        -0.4108    3.2341    0.1606 H         1 YZ9900      0.0000 
      25 H4        -1.3375   -1.9653    1.9311 H         1 YZ9900      0.0000 
      26 HO4       -1.4824   -2.1594    4.1260 H         1 YZ9900      0.0000 
      27 H10       -0.9016    1.4002    4.5673 H         1 YZ9900      0.0000 
@<TRIPOS>BOND
       1       13       17 1        
       2        7       17 ar       
       3        7       10 ar       
       4        8       10 ar       
       5        8       11 ar       
       6       14       11 2        
       7       17       15 ar       
       8       10        9 ar       
       9       11       16 ar       
      10        2        4 1        
      11        2        1 1        
      12       15        5 ar       
      13        9        5 ar       
      14        9        6 ar       
      15       16        6 ar       
      16       16       12 1        
      17        4       12 1        
      18       12        3 2        
      19       18        1 1        
      20       19        1 1        
      21       20        1 1        
      22       21        2 1        
      23       22        2 1        
      24       23        5 1        
      25       24        6 1        
      26       25        7 1        
      27       26       13 1        
      28       27       15 1        
@<TRIPOS>SUBSTRUCTURE
 1 YZ9900 10 RESIDUE 4 A YZ9900 0 ROOT

