#        scan_R01_S0075_C0000_L00001_S0001_C0003_G0010_E0001.mol2
#        Mon Jun 19 14:42:59 2017
#        Descriptor:     15     8    10     1     2     3
#        Energy - RMSD - RMSD MassCentre:     -86.9491    999.9999    999.9999
#        Receptor:       1  Surface Point:    75  Conformer:     0
#        Ligand:         1  Surface Point:     1  Conformer:     3
#        BUDE Formal Charge: 0
#        ATOM Count: 27
#        Heavy ATOM Count: 17
@<TRIPOS>MOLECULE
pdb1gcz_ligA.pdb_scan_R01_S0075_C0000_L00001_S0001_C0003_G0010_E0001
27 28 1 0 0
SMALL
GASTEIGER
@<TRIPOS>ATOM
       1 C3        -1.0046    1.8732   -5.7463 C.3       1 YZ9900      0.0513 
       2 C11       -0.1064    0.6918   -5.3910 C.3       1 YZ9900      0.2089 
       3 O1         0.2128    2.2601   -3.3051 O.2       1 YZ9900     -0.2447 
       4 O2        -0.3810    0.2712   -4.0521 O.3       1 YZ9900     -0.4453 
       5 C6        -0.3467    2.1094    1.8091 C.ar      1 YZ9900      0.0063 
       6 C5        -0.2621    1.6335   -0.6473 C.ar      1 YZ9900      0.0160 
       7 C4        -1.2644   -0.4709    2.3205 C.ar      1 YZ9900      0.0796 
       8 O3        -1.2027   -0.9844   -0.0336 O.2       1 YZ9900     -0.4208 
       9 C2        -0.5396    1.2203    0.7465 C.ar      1 YZ9900      0.0353 
      10 C1        -1.0008   -0.0763    1.0034 C.ar      1 YZ9900      0.1519 
      11 C7        -0.9400   -0.5907   -1.3437 C.ar      1 YZ9900      0.3521 
      12 C12       -0.1816    1.1600   -3.0556 C.2       1 YZ9900      0.3476 
      13 O4        -1.3447   -0.0172    4.6594 O.3       1 YZ9900     -0.2865 
      14 O5        -1.1234   -1.4012   -2.2369 O.2       1 YZ9900     -0.2442 
      15 C10       -0.6119    1.7096    3.1243 C.ar      1 YZ9900      0.0422 
      16 C9        -0.4516    0.7716   -1.6533 C.ar      1 YZ9900      0.1515 
      17 C8        -1.0732    0.4145    3.3879 C.ar      1 YZ9900      0.1988 
      18 H31       -0.8007    2.6997   -5.0686 H         1 YZ9900      0.0000 
      19 H32       -0.8052    2.1847   -6.7695 H         1 YZ9900      0.0000 
      20 H33       -2.0471    1.5761   -5.6537 H         1 YZ9900      0.0000 
      21 H112       0.9364    0.9917   -5.4695 H         1 YZ9900      0.0000 
      22 H113      -0.3004   -0.1309   -6.0758 H         1 YZ9900      0.0000 
      23 H6         0.0088    3.1112    1.6185 H         1 YZ9900      0.0000 
      24 H5         0.0933    2.6359   -0.8351 H         1 YZ9900      0.0000 
      25 H4        -1.6200   -1.4723    2.5138 H         1 YZ9900      0.0000 
      26 HO4       -1.6700   -0.9310    4.6540 H         1 YZ9900      0.0000 
      27 H10       -0.4547    2.4152    3.9267 H         1 YZ9900      0.0000 
@<TRIPOS>BOND
       1       13       17 1        
       2        7       17 ar       
       3        7       10 ar       
       4        8       10 ar       
       5        8       11 ar       
       6       14       11 2        
       7       17       15 ar       
       8       10        9 ar       
       9       11       16 ar       
      10        2        4 1        
      11        2        1 1        
      12       15        5 ar       
      13        9        5 ar       
      14        9        6 ar       
      15       16        6 ar       
      16       16       12 1        
      17        4       12 1        
      18       12        3 2        
      19       18        1 1        
      20       19        1 1        
      21       20        1 1        
      22       21        2 1        
      23       22        2 1        
      24       23        5 1        
      25       24        6 1        
      26       25        7 1        
      27       26       13 1        
      28       27       15 1        
@<TRIPOS>SUBSTRUCTURE
 1 YZ9900 10 RESIDUE 4 A YZ9900 0 ROOT

