#        1GCZ_R01_S0001_C0000_L00005_S0001_C0011_G0010_E0001.mol2
#        Tue Jun  6 14:05:55 2017
#        Descriptor:     14     7    10    11     8    15
#        Energy - RMSD - RMSD MassCentre:     -58.1252    999.9999    999.9999
#        Receptor:       1  Surface Point:     1  Conformer:     0
#        Ligand:         5  Surface Point:     1  Conformer:    11
#        BUDE Formal Charge: 0
#        ATOM Count: 55
#        Heavy ATOM Count: 30
@<TRIPOS>MOLECULE
ZINC61464195_1GCZ_R01_S0001_C0000_L00005_S0001_C0011_G0010_E0001
 55 56 0 0 0
SMALL
USER_CHARGES
@<TRIPOS>ATOM
       1 C1        10.1990    0.4979    7.1573 C.3       1 <0>        -0.1456 
       2 C2         9.1917    0.4131    6.0143 C.3       1 <0>        -0.0579 
       3 C3         9.7660   -0.4467    4.8919 C.3       1 <0>        -0.1456 
       4 C4         7.9113   -0.2085    6.5182 C.ar      1 <0>        -0.0771 
       5 C5         6.7335    0.5449    6.4468 C.ar      1 <0>        -0.0943 
       6 C6         5.5127   -0.0351    6.8119 C.ar      1 <0>        -0.0923 
       7 C7         5.4589   -1.3662    7.2421 C.ar      1 <0>        -0.1041 
       8 C8         6.6378   -2.1109    7.3666 C.ar      1 <0>        -0.1315 
       9 C9         7.8586   -1.5129    7.0321 C.ar      1 <0>        -0.0969 
      10 S1         3.8965   -2.1002    7.6341 S.3       1 <0>        -0.0341 
      11 C10        3.1977   -2.8706    6.1406 C.3       1 <0>        -0.1267 
      12 C11        1.8649   -3.4966    6.4751 C.2       1 <0>         0.4864 
      13 O1         1.7842   -4.6764    6.6468 O.2       1 <0>        -0.4815 
      14 O2         0.7636   -2.7229    6.5800 O.3       1 <0>        -0.3231 
      15 C12       -0.4762   -3.3605    6.8983 C.3       1 <0>         0.0526 
      16 C13       -1.5714   -2.3233    6.9671 C.2       1 <0>         0.5250 
      17 O3        -2.5535   -2.4168    6.2324 O.2       1 <0>        -0.5082 
      18 N1        -1.4750   -1.3087    7.8216 N.am      1 <0>        -0.5981 
      19 C14       -0.3014   -1.1970    8.6997 C.3       1 <0>         0.0731 
      20 C15       -2.5421   -0.2998    7.8872 C.3       1 <0>         0.1010 
      21 C16       -1.9274    1.0760    7.9849 C.2       1 <0>         0.4997 
      22 O4        -2.2830    1.8462    8.8755 O.2       1 <0>        -0.5061 
      23 N2        -1.0019    1.4542    7.1077 N.am      1 <0>        -0.6702 
      24 C17       -0.4259    2.7434    7.1993 C.ar      1 <0>         0.1553 
      25 C18       -1.0906    3.7593    7.8962 C.ar      1 <0>        -0.1106 
      26 C19       -0.5136    5.0314    7.9902 C.ar      1 <0>        -0.0959 
      27 C20        0.7186    5.2922    7.3842 C.ar      1 <0>        -0.1208 
      28 C21        1.3779    4.2806    6.6756 C.ar      1 <0>        -0.0919 
      29 C22        0.8058    3.0059    6.5875 C.ar      1 <0>        -0.0639 
      30 Cl1        1.6199    1.7471    5.7043 Cl        1 <0>        -0.0632 
      31 H1        10.4143   -0.5029    7.5253 H         1 <0>         0.0596 
      32 H2        11.1170    0.9581    6.7975 H         1 <0>         0.0563 
      33 H3         9.7827    1.0995    7.9627 H         1 <0>         0.0575 
      34 H4         8.9850    1.4124    5.6370 H         1 <0>         0.0784 
      35 H5         9.0521   -0.4962    4.0723 H         1 <0>         0.0596 
      36 H6         9.9591   -1.4497    5.2667 H         1 <0>         0.0574 
      37 H7        10.6957   -0.0060    4.5378 H         1 <0>         0.0563 
      38 H8         6.7470    1.5669    6.0983 H         1 <0>         0.1285 
      39 H9         4.5774    0.5032    6.7697 H         1 <0>         0.1293 
      40 H10        6.5828   -3.1307    7.7177 H         1 <0>         0.1227 
      41 H11        8.7614   -2.0897    7.1681 H         1 <0>         0.1262 
      42 H12        3.0592   -2.1131    5.3719 H         1 <0>         0.1329 
      43 H13        3.8769   -3.6383    5.7760 H         1 <0>         0.1329 
      44 H14       -0.3906   -3.8611    7.8606 H         1 <0>         0.1063 
      45 H15       -0.7173   -4.0910    6.1289 H         1 <0>         0.1054 
      46 H16        0.5970   -1.1037    8.0931 H         1 <0>         0.0686 
      47 H17       -0.4053   -0.3184    9.3328 H         1 <0>         0.0794 
      48 H18       -0.2288   -2.0866    9.3219 H         1 <0>         0.0778 
      49 H19       -3.1543   -0.3613    6.9899 H         1 <0>         0.1198 
      50 H20       -3.1612   -0.4841    8.7628 H         1 <0>         0.1233 
      51 H21       -0.7106    0.8208    6.3769 H         1 <0>         0.4142 
      52 H22       -2.0433    3.5643    8.3662 H         1 <0>         0.1473 
      53 H23       -1.0245    5.8118    8.5348 H         1 <0>         0.1337 
      54 H24        1.1652    6.2725    7.4604 H         1 <0>         0.1349 
      55 H25        2.3270    4.4822    6.2014 H         1 <0>         0.1385 
@<TRIPOS>BOND
       1        1        2 1        
       2        1       31 1        
       3        1       32 1        
       4        1       33 1        
       5        2        3 1        
       6        2        4 1        
       7        2       34 1        
       8        3       35 1        
       9        3       36 1        
      10        3       37 1        
      11        4        9 ar       
      12        4        5 ar       
      13        5        6 ar       
      14        5       38 1        
      15        6        7 ar       
      16        6       39 1        
      17        7        8 ar       
      18        7       10 1        
      19        8        9 ar       
      20        8       40 1        
      21        9       41 1        
      22       10       11 1        
      23       11       12 1        
      24       11       42 1        
      25       11       43 1        
      26       12       13 2        
      27       12       14 1        
      28       14       15 1        
      29       15       16 1        
      30       15       44 1        
      31       15       45 1        
      32       16       17 2        
      33       16       18 am       
      34       18       19 1        
      35       18       20 1        
      36       19       46 1        
      37       19       47 1        
      38       19       48 1        
      39       20       21 1        
      40       20       49 1        
      41       20       50 1        
      42       21       22 2        
      43       21       23 am       
      44       23       24 1        
      45       23       51 1        
      46       24       29 ar       
      47       24       25 ar       
      48       25       26 ar       
      49       25       52 1        
      50       26       27 ar       
      51       26       53 1        
      52       27       28 ar       
      53       27       54 1        
      54       28       29 ar       
      55       28       55 1        
      56       29       30 1        

