#        scan_R01_S0076_C0000_L00001_S0001_C0000_G0010_E0001.mol2
#        Mon Jun 19 14:43:00 2017
#        Descriptor:     13    18    19     1     3     1
#        Energy - RMSD - RMSD MassCentre:     -78.0793    999.9999    999.9999
#        Receptor:       1  Surface Point:    76  Conformer:     0
#        Ligand:         1  Surface Point:     1  Conformer:     0
#        BUDE Formal Charge: 0
#        ATOM Count: 27
#        Heavy ATOM Count: 17
@<TRIPOS>MOLECULE
pdb1gcz_ligA.pdb_scan_R01_S0076_C0000_L00001_S0001_C0000_G0010_E0001
27 28 1 0 0
SMALL
GASTEIGER
@<TRIPOS>ATOM
       1 C3         2.5084    0.0041    2.5685 C.3       1 YZ9900      0.0513 
       2 C11        1.5323   -0.6630    1.6423 C.3       1 YZ9900      0.2089 
       3 O1        -0.8579    1.6608    2.4123 O.2       1 YZ9900     -0.2447 
       4 O2         0.1483   -0.3224    2.0538 O.3       1 YZ9900     -0.4453 
       5 C6        -1.5836    3.4511   -2.4680 C.ar      1 YZ9900      0.0063 
       6 C5        -1.1792    2.1623   -0.3383 C.ar      1 YZ9900      0.0160 
       7 C4        -2.1136    0.9185   -3.8590 C.ar      1 YZ9900      0.0796 
       8 O3        -1.7087   -0.2095   -1.7727 O.2       1 YZ9900     -0.4208 
       9 C2        -1.5252    2.2089   -1.7926 C.ar      1 YZ9900      0.0353 
      10 C1        -1.7868    0.9875   -2.4863 C.ar      1 YZ9900      0.1519 
      11 C7        -1.3378   -0.2812   -0.5146 C.ar      1 YZ9900      0.3521 
      12 C12       -0.5664    0.7765    1.6658 C.2       1 YZ9900      0.3476 
      13 O4        -2.4534    2.2596   -5.8054 O.3       1 YZ9900     -0.2865 
      14 O5        -1.2545   -1.3324   -0.0177 O.2       1 YZ9900     -0.2442 
      15 C10       -1.9071    3.4364   -3.8559 C.ar      1 YZ9900      0.0422 
      16 C9        -1.0316    0.9353    0.2495 C.ar      1 YZ9900      0.1515 
      17 C8        -2.1567    2.2011   -4.4957 C.ar      1 YZ9900      0.1988 
      18 H31        2.3549    1.0830    2.5434 H         1 YZ9900      0.0000 
      19 H32        2.3533   -0.3611    3.5838 H         1 YZ9900      0.0000 
      20 H33        3.5255   -0.2258    2.2512 H         1 YZ9900      0.0000 
      21 H112       1.6691   -1.7435    1.6873 H         1 YZ9900      0.0000 
      22 H113       1.7038   -0.3171    0.6229 H         1 YZ9900      0.0000 
      23 H6        -1.3899    4.3784   -1.9495 H         1 YZ9900      0.0000 
      24 H5        -1.0494    3.0705    0.2314 H         1 YZ9900      0.0000 
      25 H4        -2.3111   -0.0086   -4.3766 H         1 YZ9900      0.0000 
      26 HO4       -1.6662    2.4942   -6.3021 H         1 YZ9900      0.0000 
      27 H10       -1.9607    4.3599   -4.4133 H         1 YZ9900      0.0000 
@<TRIPOS>BOND
       1       13       17 1        
       2        7       17 ar       
       3        7       10 ar       
       4        8       10 ar       
       5        8       11 ar       
       6       14       11 2        
       7       17       15 ar       
       8       10        9 ar       
       9       11       16 ar       
      10        2        4 1        
      11        2        1 1        
      12       15        5 ar       
      13        9        5 ar       
      14        9        6 ar       
      15       16        6 ar       
      16       16       12 1        
      17        4       12 1        
      18       12        3 2        
      19       18        1 1        
      20       19        1 1        
      21       20        1 1        
      22       21        2 1        
      23       22        2 1        
      24       23        5 1        
      25       24        6 1        
      26       25        7 1        
      27       26       13 1        
      28       27       15 1        
@<TRIPOS>SUBSTRUCTURE
 1 YZ9900 10 RESIDUE 4 A YZ9900 0 ROOT

