#        scan_R01_S0076_C0000_L00001_S0001_C0002_G0010_E0001.mol2
#        Mon Jun 19 14:43:00 2017
#        Descriptor:     13    11    14     1     2     2
#        Energy - RMSD - RMSD MassCentre:     -78.0005    999.9999    999.9999
#        Receptor:       1  Surface Point:    76  Conformer:     0
#        Ligand:         1  Surface Point:     1  Conformer:     2
#        BUDE Formal Charge: 0
#        ATOM Count: 27
#        Heavy ATOM Count: 17
@<TRIPOS>MOLECULE
pdb1gcz_ligA.pdb_scan_R01_S0076_C0000_L00001_S0001_C0002_G0010_E0001
27 28 1 0 0
SMALL
GASTEIGER
@<TRIPOS>ATOM
       1 C3        -2.8183    2.4842   -6.7207 C.3       1 YZ9900      0.0513 
       2 C11       -2.5180    3.2275   -5.4222 C.3       1 YZ9900      0.2089 
       3 O1        -1.9174    3.9362   -2.9628 O.2       1 YZ9900     -0.2447 
       4 O2        -2.2103    2.2829   -4.3936 O.3       1 YZ9900     -0.4453 
       5 C6        -0.6624    1.7560    1.5275 C.ar      1 YZ9900      0.0063 
       6 C5        -1.2950    2.2656   -0.8405 C.ar      1 YZ9900      0.0160 
       7 C4        -0.6766   -0.9771    0.9879 C.ar      1 YZ9900      0.0796 
       8 O3        -1.2861   -0.5451   -1.3036 O.2       1 YZ9900     -0.4208 
       9 C2        -0.9732    1.3065    0.2398 C.ar      1 YZ9900      0.0353 
      10 C1        -0.9805   -0.0668   -0.0314 C.ar      1 YZ9900      0.1519 
      11 C7        -1.5882    0.3616   -2.3170 C.ar      1 YZ9900      0.3521 
      12 C12       -1.9157    2.7584   -3.1648 C.2       1 YZ9900      0.3476 
      13 O4        -0.0742   -1.4618    3.2429 O.3       1 YZ9900     -0.2865 
      14 O5        -1.8530   -0.0782   -3.4238 O.2       1 YZ9900     -0.2442 
      15 C10       -0.3593    0.8413    2.5432 C.ar      1 YZ9900      0.0422 
      16 C9        -1.5905    1.8203   -2.0674 C.ar      1 YZ9900      0.1515 
      17 C8        -0.3647   -0.5333    2.2784 C.ar      1 YZ9900      0.1988 
      18 H31       -3.6761    1.8310   -6.5739 H         1 YZ9900      0.0000 
      19 H32       -3.0394    3.2034   -7.5065 H         1 YZ9900      0.0000 
      20 H33       -1.9531    1.8892   -7.0056 H         1 YZ9900      0.0000 
      21 H112      -3.3875    3.8119   -5.1286 H         1 YZ9900      0.0000 
      22 H113      -1.6682    3.8903   -5.5711 H         1 YZ9900      0.0000 
      23 H6        -0.6549    2.8140    1.7441 H         1 YZ9900      0.0000 
      24 H5        -1.2868    3.3231   -0.6212 H         1 YZ9900      0.0000 
      25 H4        -0.6834   -2.0358    0.7739 H         1 YZ9900      0.0000 
      26 HO4       -0.1424   -2.3626    2.8897 H         1 YZ9900      0.0000 
      27 H10       -0.1227    1.2143    3.5287 H         1 YZ9900      0.0000 
@<TRIPOS>BOND
       1       13       17 1        
       2        7       17 ar       
       3        7       10 ar       
       4        8       10 ar       
       5        8       11 ar       
       6       14       11 2        
       7       17       15 ar       
       8       10        9 ar       
       9       11       16 ar       
      10        2        4 1        
      11        2        1 1        
      12       15        5 ar       
      13        9        5 ar       
      14        9        6 ar       
      15       16        6 ar       
      16       16       12 1        
      17        4       12 1        
      18       12        3 2        
      19       18        1 1        
      20       19        1 1        
      21       20        1 1        
      22       21        2 1        
      23       22        2 1        
      24       23        5 1        
      25       24        6 1        
      26       25        7 1        
      27       26       13 1        
      28       27       15 1        
@<TRIPOS>SUBSTRUCTURE
 1 YZ9900 10 RESIDUE 4 A YZ9900 0 ROOT

