#        scan_R01_S0076_C0000_L00001_S0001_C0002_G0010_E0001.mol2
#        Mon Jun 19 14:14:53 2017
#        Descriptor:     32     7    31     1     2     2
#        Energy - RMSD - RMSD MassCentre:     -78.8466    999.9999    999.9999
#        Receptor:       1  Surface Point:    76  Conformer:     0
#        Ligand:         1  Surface Point:     1  Conformer:     2
#        BUDE Formal Charge: 0
#        ATOM Count: 27
#        Heavy ATOM Count: 17
@<TRIPOS>MOLECULE
pdb1gcz_ligA.pdb_scan_R01_S0076_C0000_L00001_S0001_C0002_G0010_E0001
27 28 1 0 0
SMALL
GASTEIGER
@<TRIPOS>ATOM
       1 C3        -2.5081    2.7842   -6.6797 C.3       1 YZ9900      0.0513 
       2 C11       -2.2560    3.4689   -5.3395 C.3       1 YZ9900      0.2089 
       3 O1        -1.7533    4.0671   -2.8292 O.2       1 YZ9900     -0.2447 
       4 O2        -2.0011    2.4787   -4.3398 O.3       1 YZ9900     -0.4453 
       5 C6        -0.7106    1.6865    1.6133 C.ar      1 YZ9900      0.0063 
       6 C5        -1.2375    2.3020   -0.7554 C.ar      1 YZ9900      0.0160 
       7 C4        -0.7281   -1.0213    0.9583 C.ar      1 YZ9900      0.0796 
       8 O3        -1.2358   -0.4867   -1.3364 O.2       1 YZ9900     -0.4208 
       9 C2        -0.9709    1.2950    0.2958 C.ar      1 YZ9900      0.0353 
      10 C1        -0.9798   -0.0657   -0.0334 C.ar      1 YZ9900      0.1519 
      11 C7        -1.4861    0.4650   -2.3223 C.ar      1 YZ9900      0.3521 
      12 C12       -1.7544    2.8989   -3.0807 C.2       1 YZ9900      0.3476 
      13 O4        -0.2264   -1.6068    3.2141 O.3       1 YZ9900     -0.2865 
      14 O5        -1.7079    0.0751   -3.4568 O.2       1 YZ9900     -0.2442 
      15 C10       -0.4596    0.7267    2.6011 C.ar      1 YZ9900      0.0422 
      16 C9        -1.4849    1.9119   -2.0114 C.ar      1 YZ9900      0.1515 
      17 C8        -0.4669   -0.6355    2.2784 C.ar      1 YZ9900      0.1988 
      18 H31       -3.3775    2.1352   -6.5968 H         1 YZ9900      0.0000 
      19 H32       -2.6889    3.5381   -7.4430 H         1 YZ9900      0.0000 
      20 H33       -1.6374    2.1919   -6.9531 H         1 YZ9900      0.0000 
      21 H112      -3.1315    4.0504   -5.0581 H         1 YZ9900      0.0000 
      22 H113      -1.3944    4.1277   -5.4245 H         1 YZ9900      0.0000 
      23 H6        -0.7021    2.7344    1.8747 H         1 YZ9900      0.0000 
      24 H5        -1.2284    3.3492   -0.4913 H         1 YZ9900      0.0000 
      25 H4        -0.7360   -2.0699    0.6995 H         1 YZ9900      0.0000 
      26 HO4       -0.2882   -2.4913    2.8204 H         1 YZ9900      0.0000 
      27 H10       -0.2613    1.0553    3.6107 H         1 YZ9900      0.0000 
@<TRIPOS>BOND
       1       13       17 1        
       2        7       17 ar       
       3        7       10 ar       
       4        8       10 ar       
       5        8       11 ar       
       6       14       11 2        
       7       17       15 ar       
       8       10        9 ar       
       9       11       16 ar       
      10        2        4 1        
      11        2        1 1        
      12       15        5 ar       
      13        9        5 ar       
      14        9        6 ar       
      15       16        6 ar       
      16       16       12 1        
      17        4       12 1        
      18       12        3 2        
      19       18        1 1        
      20       19        1 1        
      21       20        1 1        
      22       21        2 1        
      23       22        2 1        
      24       23        5 1        
      25       24        6 1        
      26       25        7 1        
      27       26       13 1        
      28       27       15 1        
@<TRIPOS>SUBSTRUCTURE
 1 YZ9900 10 RESIDUE 4 A YZ9900 0 ROOT

