#        scan_R01_S0076_C0000_L00001_S0001_C0003_G0010_E0001.mol2
#        Mon Jun 19 14:43:01 2017
#        Descriptor:      9    11    16     1     2     2
#        Energy - RMSD - RMSD MassCentre:     -80.2326    999.9999    999.9999
#        Receptor:       1  Surface Point:    76  Conformer:     0
#        Ligand:         1  Surface Point:     1  Conformer:     3
#        BUDE Formal Charge: 0
#        ATOM Count: 27
#        Heavy ATOM Count: 17
@<TRIPOS>MOLECULE
pdb1gcz_ligA.pdb_scan_R01_S0076_C0000_L00001_S0001_C0003_G0010_E0001
27 28 1 0 0
SMALL
GASTEIGER
@<TRIPOS>ATOM
       1 C3        -3.1665    3.7138   -5.5258 C.3       1 YZ9900      0.0513 
       2 C11       -2.2941    2.5035   -5.8463 C.3       1 YZ9900      0.2089 
       3 O1        -1.1623    3.4213   -3.6580 O.2       1 YZ9900     -0.2447 
       4 O2        -2.1260    1.7126   -4.6668 O.3       1 YZ9900     -0.4453 
       5 C6         0.0498    1.8081    1.0768 C.ar      1 YZ9900      0.0063 
       6 C5        -0.7468    2.0528   -1.2839 C.ar      1 YZ9900      0.0160 
       7 C4        -0.8324   -0.8336    1.1456 C.ar      1 YZ9900      0.0796 
       8 O3        -1.6184   -0.6546   -1.1258 O.2       1 YZ9900     -0.4208 
       9 C2        -0.5620    1.2533   -0.0522 C.ar      1 YZ9900      0.0353 
      10 C1        -1.0054   -0.0741   -0.0177 C.ar      1 YZ9900      0.1519 
      11 C7        -1.7900    0.1020   -2.2827 C.ar      1 YZ9900      0.3521 
      12 C12       -1.5306    2.2860   -3.5994 C.2       1 YZ9900      0.3476 
      13 O4        -0.0736   -1.0660    3.3935 O.3       1 YZ9900     -0.2865 
      14 O5        -2.3290   -0.4254   -3.2417 O.2       1 YZ9900     -0.2442 
      15 C10        0.2203    1.0441    2.2376 C.ar      1 YZ9900      0.0422 
      16 C9        -1.3340    1.5081   -2.3559 C.ar      1 YZ9900      0.1515 
      17 C8        -0.2208   -0.2838    2.2785 C.ar      1 YZ9900      0.1988 
      18 H31       -2.6806    4.3183   -4.7626 H         1 YZ9900      0.0000 
      19 H32       -3.3055    4.3085   -6.4263 H         1 YZ9900      0.0000 
      20 H33       -4.1340    3.3762   -5.1605 H         1 YZ9900      0.0000 
      21 H112      -1.3212    2.8398   -6.1984 H         1 YZ9900      0.0000 
      22 H113      -2.7729    1.9048   -6.6183 H         1 YZ9900      0.0000 
      23 H6         0.3943    2.8315    1.0576 H         1 YZ9900      0.0000 
      24 H5        -0.4013    3.0760   -1.3004 H         1 YZ9900      0.0000 
      25 H4        -1.1760   -1.8573    1.1674 H         1 YZ9900      0.0000 
      26 HO4       -0.4501   -1.9486    3.2509 H         1 YZ9900      0.0000 
      27 H10        0.6957    1.4962    3.0955 H         1 YZ9900      0.0000 
@<TRIPOS>BOND
       1       13       17 1        
       2        7       17 ar       
       3        7       10 ar       
       4        8       10 ar       
       5        8       11 ar       
       6       14       11 2        
       7       17       15 ar       
       8       10        9 ar       
       9       11       16 ar       
      10        2        4 1        
      11        2        1 1        
      12       15        5 ar       
      13        9        5 ar       
      14        9        6 ar       
      15       16        6 ar       
      16       16       12 1        
      17        4       12 1        
      18       12        3 2        
      19       18        1 1        
      20       19        1 1        
      21       20        1 1        
      22       21        2 1        
      23       22        2 1        
      24       23        5 1        
      25       24        6 1        
      26       25        7 1        
      27       26       13 1        
      28       27       15 1        
@<TRIPOS>SUBSTRUCTURE
 1 YZ9900 10 RESIDUE 4 A YZ9900 0 ROOT

