#        1GCZ_R01_S0001_C0000_L00005_S0001_C0012_G0010_E0001.mol2
#        Tue Jun  6 09:55:39 2017
#        Descriptor:      3    19    25    12     6    13
#        Energy - RMSD - RMSD MassCentre:     -50.8215    999.9999    999.9999
#        Receptor:       1  Surface Point:     1  Conformer:     0
#        Ligand:         5  Surface Point:     1  Conformer:    12
#        BUDE Formal Charge: 0
#        ATOM Count: 55
#        Heavy ATOM Count: 30
@<TRIPOS>MOLECULE
ZINC61464195_1GCZ_R01_S0001_C0000_L00005_S0001_C0012_G0010_E0001
 55 56 0 0 0
SMALL
USER_CHARGES
@<TRIPOS>ATOM
       1 C1         9.9730   -2.3274    1.6728 C.3       1 <0>        -0.1456 
       2 C2         8.5122   -2.7661    1.7182 C.3       1 <0>        -0.0579 
       3 C3         8.3426   -4.0564    0.9211 C.3       1 <0>        -0.1456 
       4 C4         8.1034   -3.0041    3.1520 C.ar      1 <0>        -0.0771 
       5 C5         7.0640   -2.2319    3.6841 C.ar      1 <0>        -0.0943 
       6 C6         6.5929   -2.4938    4.9762 C.ar      1 <0>        -0.0923 
       7 C7         7.1491   -3.5272    5.7394 C.ar      1 <0>        -0.1041 
       8 C8         8.2236   -4.2701    5.2361 C.ar      1 <0>        -0.1315 
       9 C9         8.7114   -3.9797    3.9565 C.ar      1 <0>        -0.0969 
      10 S1         6.4932   -3.8849    7.3440 S.3       1 <0>        -0.0341 
      11 C10        5.1637   -5.1186    7.1935 C.3       1 <0>        -0.1267 
      12 C11        4.0591   -4.5637    6.3263 C.2       1 <0>         0.4864 
      13 O1         3.9686   -4.9014    5.1836 O.2       1 <0>        -0.4815 
      14 O2         3.1730   -3.6856    6.8423 O.3       1 <0>        -0.3231 
      15 C12        3.3212   -3.3113    8.2145 C.3       1 <0>         0.0526 
      16 C13        2.2367   -2.3289    8.5872 C.2       1 <0>         0.5250 
      17 O3         1.4584   -2.5909    9.5030 O.2       1 <0>        -0.5082 
      18 N1         2.1224   -1.1807    7.9260 N.am      1 <0>        -0.5981 
      19 C14        3.0526   -0.8676    6.8316 C.3       1 <0>         0.0731 
      20 C15        1.0660   -0.2255    8.2901 C.3       1 <0>         0.1010 
      21 C16        0.4356    0.3289    7.0349 C.2       1 <0>         0.4997 
      22 O4         0.3334    1.5453    6.8841 O.2       1 <0>        -0.5061 
      23 N2        -0.0089   -0.4985    6.0932 N.am      1 <0>        -0.6702 
      24 C17       -0.5996    0.0211    4.9170 C.ar      1 <0>         0.1553 
      25 C18       -1.7553   -0.5709    4.3937 C.ar      1 <0>        -0.1106 
      26 C19       -2.3403   -0.0491    3.2339 C.ar      1 <0>        -0.0959 
      27 C20       -1.7704    1.0544    2.5928 C.ar      1 <0>        -0.1208 
      28 C21       -0.6070    1.6387    3.1077 C.ar      1 <0>        -0.0919 
      29 C22       -0.0253    1.1229    4.2719 C.ar      1 <0>        -0.0639 
      30 Cl1        1.4229    1.8438    4.9128 Cl        1 <0>        -0.0632 
      31 H1        10.5997   -3.1116    2.0923 H         1 <0>         0.0596 
      32 H2        10.2637   -2.1430    0.6406 H         1 <0>         0.0563 
      33 H3        10.0953   -1.4152    2.2531 H         1 <0>         0.0575 
      34 H4         7.8856   -1.9880    1.2876 H         1 <0>         0.0784 
      35 H5         7.2985   -4.3613    0.9438 H         1 <0>         0.0596 
      36 H6         8.9590   -4.8374    1.3613 H         1 <0>         0.0574 
      37 H7         8.6497   -3.8884   -0.1091 H         1 <0>         0.0563 
      38 H8         6.6052   -1.4430    3.1066 H         1 <0>         0.1285 
      39 H9         5.7908   -1.9293    5.4283 H         1 <0>         0.1293 
      40 H10        8.6548   -5.0519    5.8438 H         1 <0>         0.1227 
      41 H11        9.5635   -4.5383    3.5983 H         1 <0>         0.1262 
      42 H12        5.5589   -6.0253    6.7402 H         1 <0>         0.1329 
      43 H13        4.7680   -5.3486    8.1806 H         1 <0>         0.1329 
      44 H14        4.2950   -2.8486    8.3616 H         1 <0>         0.1063 
      45 H15        3.2403   -4.1955    8.8431 H         1 <0>         0.1054 
      46 H16        2.9594   -1.6198    6.0511 H         1 <0>         0.0686 
      47 H17        2.8138    0.1119    6.4227 H         1 <0>         0.0794 
      48 H18        4.0717   -0.8637    7.2126 H         1 <0>         0.0778 
      49 H19        0.3082   -0.7326    8.8837 H         1 <0>         0.1198 
      50 H20        1.4975    0.5880    8.8697 H         1 <0>         0.1233 
      51 H21        0.0757   -1.4972    6.2180 H         1 <0>         0.4142 
      52 H22       -2.2003   -1.4240    4.8843 H         1 <0>         0.1473 
      53 H23       -3.2362   -0.5026    2.8360 H         1 <0>         0.1337 
      54 H24       -2.2243    1.4589    1.7004 H         1 <0>         0.1349 
      55 H25       -0.1616    2.4874    2.6099 H         1 <0>         0.1385 
@<TRIPOS>BOND
       1        1        2 1        
       2        1       31 1        
       3        1       32 1        
       4        1       33 1        
       5        2        3 1        
       6        2        4 1        
       7        2       34 1        
       8        3       35 1        
       9        3       36 1        
      10        3       37 1        
      11        4        9 ar       
      12        4        5 ar       
      13        5        6 ar       
      14        5       38 1        
      15        6        7 ar       
      16        6       39 1        
      17        7        8 ar       
      18        7       10 1        
      19        8        9 ar       
      20        8       40 1        
      21        9       41 1        
      22       10       11 1        
      23       11       12 1        
      24       11       42 1        
      25       11       43 1        
      26       12       13 2        
      27       12       14 1        
      28       14       15 1        
      29       15       16 1        
      30       15       44 1        
      31       15       45 1        
      32       16       17 2        
      33       16       18 am       
      34       18       19 1        
      35       18       20 1        
      36       19       46 1        
      37       19       47 1        
      38       19       48 1        
      39       20       21 1        
      40       20       49 1        
      41       20       50 1        
      42       21       22 2        
      43       21       23 am       
      44       23       24 1        
      45       23       51 1        
      46       24       29 ar       
      47       24       25 ar       
      48       25       26 ar       
      49       25       52 1        
      50       26       27 ar       
      51       26       53 1        
      52       27       28 ar       
      53       27       54 1        
      54       28       29 ar       
      55       28       55 1        
      56       29       30 1        

