#        scan_R01_S0076_C0000_L00001_S0001_C0003_G0010_E0001.mol2
#        Mon Jun 19 14:14:54 2017
#        Descriptor:     29     7    33     1     2     2
#        Energy - RMSD - RMSD MassCentre:     -80.6436    999.9999    999.9999
#        Receptor:       1  Surface Point:    76  Conformer:     0
#        Ligand:         1  Surface Point:     1  Conformer:     3
#        BUDE Formal Charge: 0
#        ATOM Count: 27
#        Heavy ATOM Count: 17
@<TRIPOS>MOLECULE
pdb1gcz_ligA.pdb_scan_R01_S0076_C0000_L00001_S0001_C0003_G0010_E0001
27 28 1 0 0
SMALL
GASTEIGER
@<TRIPOS>ATOM
       1 C3        -3.4850    3.9369   -5.2294 C.3       1 YZ9900      0.0513 
       2 C11       -2.4226    2.9143   -5.6218 C.3       1 YZ9900      0.2089 
       3 O1        -1.5394    3.7429   -3.2883 O.2       1 YZ9900     -0.2447 
       4 O2        -2.1828    2.0316   -4.5226 O.3       1 YZ9900     -0.4453 
       5 C6        -0.2898    1.8143    1.3171 C.ar      1 YZ9900      0.0063 
       6 C5        -1.0156    2.1972   -1.0480 C.ar      1 YZ9900      0.0160 
       7 C4        -0.7528   -0.9210    1.0612 C.ar      1 YZ9900      0.0796 
       8 O3        -1.4616   -0.6109   -1.2215 O.2       1 YZ9900     -0.4208 
       9 C2        -0.7603    1.3028    0.1031 C.ar      1 YZ9900      0.0353 
      10 C1        -0.9931   -0.0717   -0.0255 C.ar      1 YZ9900      0.1519 
      11 C7        -1.7003    0.2351   -2.3021 C.ar      1 YZ9900      0.3521 
      12 C12       -1.7289    2.5658   -3.3688 C.2       1 YZ9900      0.3476 
      13 O4        -0.0615   -1.2850    3.3134 O.3       1 YZ9900     -0.2865 
      14 O5        -2.1104   -0.2575   -3.3402 O.2       1 YZ9900     -0.2442 
      15 C10       -0.0512    0.9605    2.4007 C.ar      1 YZ9900      0.0422 
      16 C9        -1.4658    1.6930   -2.2030 C.ar      1 YZ9900      0.1515 
      17 C8        -0.2818   -0.4148    2.2784 C.ar      1 YZ9900      0.1988 
      18 H31       -3.1313    4.5190   -4.3808 H         1 YZ9900      0.0000 
      19 H32       -3.6771    4.6002   -6.0701 H         1 YZ9900      0.0000 
      20 H33       -4.4027    3.4195   -4.9578 H         1 YZ9900      0.0000 
      21 H112      -1.4999    3.4298   -5.8800 H         1 YZ9900      0.0000 
      22 H113      -2.7698    2.3400   -6.4781 H         1 YZ9900      0.0000 
      23 H6        -0.1080    2.8735    1.4238 H         1 YZ9900      0.0000 
      24 H5        -0.8330    3.2561   -0.9387 H         1 YZ9900      0.0000 
      25 H4        -0.9338   -1.9807    0.9571 H         1 YZ9900      0.0000 
      26 HO4       -0.2900   -2.1927    3.0587 H         1 YZ9900      0.0000 
      27 H10        0.3120    1.3807    3.3269 H         1 YZ9900      0.0000 
@<TRIPOS>BOND
       1       13       17 1        
       2        7       17 ar       
       3        7       10 ar       
       4        8       10 ar       
       5        8       11 ar       
       6       14       11 2        
       7       17       15 ar       
       8       10        9 ar       
       9       11       16 ar       
      10        2        4 1        
      11        2        1 1        
      12       15        5 ar       
      13        9        5 ar       
      14        9        6 ar       
      15       16        6 ar       
      16       16       12 1        
      17        4       12 1        
      18       12        3 2        
      19       18        1 1        
      20       19        1 1        
      21       20        1 1        
      22       21        2 1        
      23       22        2 1        
      24       23        5 1        
      25       24        6 1        
      26       25        7 1        
      27       26       13 1        
      28       27       15 1        
@<TRIPOS>SUBSTRUCTURE
 1 YZ9900 10 RESIDUE 4 A YZ9900 0 ROOT

