#        scan_R01_S0077_C0000_L00001_S0001_C0000_G0010_E0001.mol2
#        Mon Jun 19 14:14:55 2017
#        Descriptor:     27    31    29     1     2     4
#        Energy - RMSD - RMSD MassCentre:     -37.6654    999.9999    999.9999
#        Receptor:       1  Surface Point:    77  Conformer:     0
#        Ligand:         1  Surface Point:     1  Conformer:     0
#        BUDE Formal Charge: 0
#        ATOM Count: 27
#        Heavy ATOM Count: 17
@<TRIPOS>MOLECULE
pdb1gcz_ligA.pdb_scan_R01_S0077_C0000_L00001_S0001_C0000_G0010_E0001
27 28 1 0 0
SMALL
GASTEIGER
@<TRIPOS>ATOM
       1 C3         1.7165   -4.3181    1.8998 C.3       1 YZ9900      0.0513 
       2 C11        0.4655   -3.7136    2.4703 C.3       1 YZ9900      0.2089 
       3 O1         2.1472   -0.8316    3.2264 O.2       1 YZ9900     -0.2447 
       4 O2         0.8275   -2.6452    3.4338 O.3       1 YZ9900     -0.4453 
       5 C6        -0.8271    2.3996    0.3521 C.ar      1 YZ9900      0.0063 
       6 C5         0.1864    0.6173    1.8206 C.ar      1 YZ9900      0.0160 
       7 C4        -3.4826    1.7009    1.3964 C.ar      1 YZ9900      0.0796 
       8 O3        -2.4103    0.0307    2.7564 O.2       1 YZ9900     -0.4208 
       9 C2        -0.9986    1.3773    1.3156 C.ar      1 YZ9900      0.0353 
      10 C1        -2.2983    1.0523    1.8120 C.ar      1 YZ9900      0.1519 
      11 C7        -1.3948   -0.6976    3.1614 C.ar      1 YZ9900      0.3521 
      12 C12        1.0677   -1.3325    3.1373 C.2       1 YZ9900      0.3476 
      13 O4        -4.3104    3.4077   -0.0541 O.3       1 YZ9900     -0.2865 
      14 O5        -1.5959   -1.5623    3.9167 O.2       1 YZ9900     -0.2442 
      15 C10       -1.9917    3.0840   -0.1025 C.ar      1 YZ9900      0.0422 
      16 C9        -0.0360   -0.4309    2.6718 C.ar      1 YZ9900      0.1515 
      17 C8        -3.2546    2.7240    0.4199 C.ar      1 YZ9900      0.1988 
      18 H31        2.3048   -3.5422    1.4097 H         1 YZ9900      0.0000 
      19 H32        2.3025   -4.7653    2.7028 H         1 YZ9900      0.0000 
      20 H33        1.4503   -5.0858    1.1733 H         1 YZ9900      0.0000 
      21 H112      -0.1098   -4.4849    2.9825 H         1 YZ9900      0.0000 
      22 H113      -0.1330   -3.2886    1.6645 H         1 YZ9900      0.0000 
      23 H6         0.1524    2.6526   -0.0255 H         1 YZ9900      0.0000 
      24 H5         1.1884    0.8878    1.5221 H         1 YZ9900      0.0000 
      25 H4        -4.4618    1.4505    1.7769 H         1 YZ9900      0.0000 
      26 HO4       -4.4788    3.1479   -0.9628 H         1 YZ9900      0.0000 
      27 H10       -1.9099    3.8698   -0.8390 H         1 YZ9900      0.0000 
@<TRIPOS>BOND
       1       13       17 1        
       2        7       17 ar       
       3        7       10 ar       
       4        8       10 ar       
       5        8       11 ar       
       6       14       11 2        
       7       17       15 ar       
       8       10        9 ar       
       9       11       16 ar       
      10        2        4 1        
      11        2        1 1        
      12       15        5 ar       
      13        9        5 ar       
      14        9        6 ar       
      15       16        6 ar       
      16       16       12 1        
      17        4       12 1        
      18       12        3 2        
      19       18        1 1        
      20       19        1 1        
      21       20        1 1        
      22       21        2 1        
      23       22        2 1        
      24       23        5 1        
      25       24        6 1        
      26       25        7 1        
      27       26       13 1        
      28       27       15 1        
@<TRIPOS>SUBSTRUCTURE
 1 YZ9900 10 RESIDUE 4 A YZ9900 0 ROOT

