#        scan_R01_S0077_C0000_L00001_S0001_C0002_G0010_E0001.mol2
#        Mon Jun 19 14:14:55 2017
#        Descriptor:     31    16    31     1     1     5
#        Energy - RMSD - RMSD MassCentre:     -37.5665    999.9999    999.9999
#        Receptor:       1  Surface Point:    77  Conformer:     0
#        Ligand:         1  Surface Point:     1  Conformer:     2
#        BUDE Formal Charge: 0
#        ATOM Count: 27
#        Heavy ATOM Count: 17
@<TRIPOS>MOLECULE
pdb1gcz_ligA.pdb_scan_R01_S0077_C0000_L00001_S0001_C0002_G0010_E0001
27 28 1 0 0
SMALL
GASTEIGER
@<TRIPOS>ATOM
       1 C3         3.8824   -5.6764    0.0103 C.3       1 YZ9900      0.0513 
       2 C11        3.6318   -4.1917   -0.2374 C.3       1 YZ9900      0.2089 
       3 O1         2.7625   -1.7105   -0.2329 O.2       1 YZ9900     -0.2447 
       4 O2         2.5679   -3.7416    0.6054 O.3       1 YZ9900     -0.4453 
       5 C6        -0.7852    1.1743    2.1299 C.ar      1 YZ9900      0.0063 
       6 C5         0.7245   -0.6502    1.3177 C.ar      1 YZ9900      0.0160 
       7 C4        -2.0492   -0.5907    3.8758 C.ar      1 YZ9900      0.0796 
       8 O3        -0.6228   -2.3852    3.1312 O.2       1 YZ9900     -0.4208 
       9 C2        -0.3742   -0.1619    2.1807 C.ar      1 YZ9900      0.0353 
      10 C1        -1.0094   -1.0489    3.0579 C.ar      1 YZ9900      0.1519 
      11 C7         0.4119   -2.8399    2.3170 C.ar      1 YZ9900      0.3521 
      12 C12        2.2021   -2.4445    0.5255 C.2       1 YZ9900      0.3476 
      13 O4        -3.4864    1.1470    4.6488 O.3       1 YZ9900     -0.2865 
      14 O5         0.7348   -4.0137    2.3968 O.2       1 YZ9900     -0.2442 
      15 C10       -1.8255    1.6272    2.9500 C.ar      1 YZ9900      0.0422 
      16 C9         1.1063   -1.9314    1.3776 C.ar      1 YZ9900      0.1515 
      17 C8        -2.4647    0.7453    3.8294 C.ar      1 YZ9900      0.1988 
      18 H31        2.9824   -6.2400   -0.2269 H         1 YZ9900      0.0000 
      19 H32        4.7007   -6.0156   -0.6214 H         1 YZ9900      0.0000 
      20 H33        4.1425   -5.8302    1.0555 H         1 YZ9900      0.0000 
      21 H112       3.3579   -4.0382   -1.2792 H         1 YZ9900      0.0000 
      22 H113       4.5349   -3.6283   -0.0125 H         1 YZ9900      0.0000 
      23 H6        -0.2998    1.8643    1.4555 H         1 YZ9900      0.0000 
      24 H5         1.2081    0.0420    0.6443 H         1 YZ9900      0.0000 
      25 H4        -2.5362   -1.2788    4.5511 H         1 YZ9900      0.0000 
      26 HO4       -3.8216    0.4046    5.1756 H         1 YZ9900      0.0000 
      27 H10       -2.1236    2.6636    2.8915 H         1 YZ9900      0.0000 
@<TRIPOS>BOND
       1       13       17 1        
       2        7       17 ar       
       3        7       10 ar       
       4        8       10 ar       
       5        8       11 ar       
       6       14       11 2        
       7       17       15 ar       
       8       10        9 ar       
       9       11       16 ar       
      10        2        4 1        
      11        2        1 1        
      12       15        5 ar       
      13        9        5 ar       
      14        9        6 ar       
      15       16        6 ar       
      16       16       12 1        
      17        4       12 1        
      18       12        3 2        
      19       18        1 1        
      20       19        1 1        
      21       20        1 1        
      22       21        2 1        
      23       22        2 1        
      24       23        5 1        
      25       24        6 1        
      26       25        7 1        
      27       26       13 1        
      28       27       15 1        
@<TRIPOS>SUBSTRUCTURE
 1 YZ9900 10 RESIDUE 4 A YZ9900 0 ROOT

