#        scan_R01_S0077_C0000_L00001_S0001_C0003_G0010_E0001.mol2
#        Mon Jun 19 14:14:56 2017
#        Descriptor:      1    18    15     1     1     5
#        Energy - RMSD - RMSD MassCentre:     -38.1193    999.9999    999.9999
#        Receptor:       1  Surface Point:    77  Conformer:     0
#        Ligand:         1  Surface Point:     1  Conformer:     3
#        BUDE Formal Charge: 0
#        ATOM Count: 27
#        Heavy ATOM Count: 17
@<TRIPOS>MOLECULE
pdb1gcz_ligA.pdb_scan_R01_S0077_C0000_L00001_S0001_C0003_G0010_E0001
27 28 1 0 0
SMALL
GASTEIGER
@<TRIPOS>ATOM
       1 C3        -5.6384    3.6127    0.5041 C.3       1 YZ9900      0.0513 
       2 C11       -6.2314    2.3439    1.1101 C.3       1 YZ9900      0.2089 
       3 O1        -4.0984    1.4130   -0.1129 O.2       1 YZ9900     -0.2447 
       4 O2        -5.2038    1.6140    1.7855 O.3       1 YZ9900     -0.4453 
       5 C6         0.1751   -1.2403    0.9771 C.ar      1 YZ9900      0.0063 
       6 C5        -2.0087   -0.0168    1.0145 C.ar      1 YZ9900      0.0160 
       7 C4        -0.0115   -1.7437    3.7108 C.ar      1 YZ9900      0.0796 
       8 O3        -2.1181   -0.5764    3.8055 O.2       1 YZ9900     -0.4208 
       9 C2        -0.9332   -0.7745    1.6924 C.ar      1 YZ9900      0.0353 
      10 C1        -1.0270   -1.0273    3.0661 C.ar      1 YZ9900      0.1519 
      11 C7        -3.1279    0.1363    3.1629 C.ar      1 YZ9900      0.3521 
      12 C12       -4.1514    1.1822    1.0584 C.2       1 YZ9900      0.3476 
      13 O4         2.0680   -2.9086    3.6745 O.3       1 YZ9900     -0.2865 
      14 O5        -4.0745    0.5220    3.8288 O.2       1 YZ9900     -0.2442 
      15 C10        1.1877   -1.9562    1.6268 C.ar      1 YZ9900      0.0422 
      16 C9        -3.0627    0.4225    1.7124 C.ar      1 YZ9900      0.1515 
      17 C8         1.0998   -2.2124    3.0002 C.ar      1 YZ9900      0.1988 
      18 H31       -4.8666    3.3443   -0.2143 H         1 YZ9900      0.0000 
      19 H32       -6.4228    4.1748    0.0017 H         1 YZ9900      0.0000 
      20 H33       -5.2037    4.2220    1.2937 H         1 YZ9900      0.0000 
      21 H112      -6.6539    1.7271    0.3198 H         1 YZ9900      0.0000 
      22 H113      -7.0119    2.6106    1.8195 H         1 YZ9900      0.0000 
      23 H6         0.2543   -1.0490   -0.0829 H         1 YZ9900      0.0000 
      24 H5        -1.9270    0.1731   -0.0455 H         1 YZ9900      0.0000 
      25 H4        -0.0883   -1.9364    4.7707 H         1 YZ9900      0.0000 
      26 HO4        1.8534   -2.9768    4.6180 H         1 YZ9900      0.0000 
      27 H10        2.0327   -2.3048    1.0516 H         1 YZ9900      0.0000 
@<TRIPOS>BOND
       1       13       17 1        
       2        7       17 ar       
       3        7       10 ar       
       4        8       10 ar       
       5        8       11 ar       
       6       14       11 2        
       7       17       15 ar       
       8       10        9 ar       
       9       11       16 ar       
      10        2        4 1        
      11        2        1 1        
      12       15        5 ar       
      13        9        5 ar       
      14        9        6 ar       
      15       16        6 ar       
      16       16       12 1        
      17        4       12 1        
      18       12        3 2        
      19       18        1 1        
      20       19        1 1        
      21       20        1 1        
      22       21        2 1        
      23       22        2 1        
      24       23        5 1        
      25       24        6 1        
      26       25        7 1        
      27       26       13 1        
      28       27       15 1        
@<TRIPOS>SUBSTRUCTURE
 1 YZ9900 10 RESIDUE 4 A YZ9900 0 ROOT

