#        scan_R01_S0078_C0000_L00001_S0001_C0002_G0010_E0001.mol2
#        Mon Jun 19 14:43:04 2017
#        Descriptor:     27    19    33     1     3     3
#        Energy - RMSD - RMSD MassCentre:     -35.9224    999.9999    999.9999
#        Receptor:       1  Surface Point:    78  Conformer:     0
#        Ligand:         1  Surface Point:     1  Conformer:     2
#        BUDE Formal Charge: 0
#        ATOM Count: 27
#        Heavy ATOM Count: 17
@<TRIPOS>MOLECULE
pdb1gcz_ligA.pdb_scan_R01_S0078_C0000_L00001_S0001_C0002_G0010_E0001
27 28 1 0 0
SMALL
GASTEIGER
@<TRIPOS>ATOM
       1 C3         5.6915   -1.8347    2.3537 C.3       1 YZ9900      0.0513 
       2 C11        5.2370   -0.3956    2.1285 C.3       1 YZ9900      0.2089 
       3 O1         3.8960    1.8216    1.6835 O.2       1 YZ9900     -0.2447 
       4 O2         3.8240   -0.3716    1.9099 O.3       1 YZ9900     -0.4453 
       5 C6        -0.9380    3.3407    0.7804 C.ar      1 YZ9900      0.0063 
       6 C5         1.1717    2.0736    1.2399 C.ar      1 YZ9900      0.0160 
       7 C4        -2.4139    0.9780    0.8105 C.ar      1 YZ9900      0.0796 
       8 O3        -0.4143   -0.2927    1.2536 O.2       1 YZ9900     -0.4208 
       9 C2        -0.2897    2.1228    1.0113 C.ar      1 YZ9900      0.0353 
      10 C1        -1.0313    0.9355    1.0264 C.ar      1 YZ9900      0.1519 
      11 C7         0.9615   -0.3337    1.4683 C.ar      1 YZ9900      0.3521 
      12 C12        3.2374    0.8245    1.6908 C.2       1 YZ9900      0.3476 
      13 O4        -4.4224    2.1851    0.3729 O.3       1 YZ9900     -0.2865 
      14 O5         1.4819   -1.4194    1.6653 O.2       1 YZ9900     -0.2442 
      15 C10       -2.3208    3.3774    0.5650 C.ar      1 YZ9900      0.0422 
      16 C9         1.7776    0.9008    1.4594 C.ar      1 YZ9900      0.1515 
      17 C8        -3.0681    2.1938    0.5790 C.ar      1 YZ9900      0.1988 
      18 H31        5.4612   -2.4293    1.4720 H         1 YZ9900      0.0000 
      19 H32        6.7645   -1.8516    2.5331 H         1 YZ9900      0.0000 
      20 H33        5.1724   -2.2476    3.2161 H         1 YZ9900      0.0000 
      21 H112       5.7450    0.0139    1.2578 H         1 YZ9900      0.0000 
      22 H113       5.4781    0.2029    3.0045 H         1 YZ9900      0.0000 
      23 H6        -0.3724    4.2606    0.7672 H         1 YZ9900      0.0000 
      24 H5         1.7349    2.9951    1.2263 H         1 YZ9900      0.0000 
      25 H4        -2.9817    0.0594    0.8232 H         1 YZ9900      0.0000 
      26 HO4       -4.7720    1.2806    0.3993 H         1 YZ9900      0.0000 
      27 H10       -2.7971    4.3307    0.3891 H         1 YZ9900      0.0000 
@<TRIPOS>BOND
       1       13       17 1        
       2        7       17 ar       
       3        7       10 ar       
       4        8       10 ar       
       5        8       11 ar       
       6       14       11 2        
       7       17       15 ar       
       8       10        9 ar       
       9       11       16 ar       
      10        2        4 1        
      11        2        1 1        
      12       15        5 ar       
      13        9        5 ar       
      14        9        6 ar       
      15       16        6 ar       
      16       16       12 1        
      17        4       12 1        
      18       12        3 2        
      19       18        1 1        
      20       19        1 1        
      21       20        1 1        
      22       21        2 1        
      23       22        2 1        
      24       23        5 1        
      25       24        6 1        
      26       25        7 1        
      27       26       13 1        
      28       27       15 1        
@<TRIPOS>SUBSTRUCTURE
 1 YZ9900 10 RESIDUE 4 A YZ9900 0 ROOT

