#        1GCZ_R01_S0001_C0000_L00005_S0001_C0012_G0010_E0001.mol2
#        Tue Jun  6 14:05:57 2017
#        Descriptor:     19     1     3     9     4    14
#        Energy - RMSD - RMSD MassCentre:     -57.7984    999.9999    999.9999
#        Receptor:       1  Surface Point:     1  Conformer:     0
#        Ligand:         5  Surface Point:     1  Conformer:    12
#        BUDE Formal Charge: 0
#        ATOM Count: 55
#        Heavy ATOM Count: 30
@<TRIPOS>MOLECULE
ZINC61464195_1GCZ_R01_S0001_C0000_L00005_S0001_C0012_G0010_E0001
 55 56 0 0 0
SMALL
USER_CHARGES
@<TRIPOS>ATOM
       1 C1         6.2748   -8.3414    5.5719 C.3       1 <0>        -0.1456 
       2 C2         5.0260   -7.7805    4.8976 C.3       1 <0>        -0.0579 
       3 C3         4.5091   -8.7821    3.8687 C.3       1 <0>        -0.1456 
       4 C4         3.9605   -7.5346    5.9386 C.ar      1 <0>        -0.0771 
       5 C5         3.4897   -6.2277    6.1122 C.ar      1 <0>        -0.0943 
       6 C6         2.4332   -5.9799    6.9968 C.ar      1 <0>        -0.0923 
       7 C7         1.8385   -7.0306    7.7054 C.ar      1 <0>        -0.1041 
       8 C8         2.3368   -8.3326    7.5780 C.ar      1 <0>        -0.1315 
       9 C9         3.4157   -8.5667    6.7172 C.ar      1 <0>        -0.0969 
      10 S1         0.4602   -6.7046    8.7671 S.3       1 <0>        -0.0341 
      11 C10       -1.0855   -6.8685    7.8205 C.3       1 <0>        -0.1267 
      12 C11       -1.0911   -5.8670    6.6904 C.2       1 <0>         0.4864 
      13 O1        -0.8313   -6.2183    5.5782 O.2       1 <0>        -0.4815 
      14 O2        -1.3901   -4.5737    6.9367 O.3       1 <0>        -0.3231 
      15 C12       -1.6945   -4.2004    8.2831 C.3       1 <0>         0.0526 
      16 C13       -1.9975   -2.7221    8.3383 C.2       1 <0>         0.5250 
      17 O3        -3.0858   -2.3331    8.7591 O.2       1 <0>        -0.5082 
      18 N1        -1.0884   -1.8405    7.9321 N.am      1 <0>        -0.5981 
      19 C14        0.2123   -2.3054    7.4292 C.3       1 <0>         0.0731 
      20 C15       -1.3851   -0.4017    7.9864 C.3       1 <0>         0.1010 
      21 C16       -0.9004    0.2594    6.7183 C.2       1 <0>         0.4997 
      22 O4        -0.1753    1.2509    6.7805 O.2       1 <0>        -0.5061 
      23 N2        -1.2579   -0.2309    5.5347 N.am      1 <0>        -0.6702 
      24 C17       -0.8037    0.3886    4.3463 C.ar      1 <0>         0.1553 
      25 C18       -1.6825    0.5711    3.2721 C.ar      1 <0>        -0.1106 
      26 C19       -1.2307    1.1909    2.1009 C.ar      1 <0>        -0.0959 
      27 C20        0.0954    1.6202    1.9979 C.ar      1 <0>        -0.1208 
      28 C21        0.9787    1.4259    3.0667 C.ar      1 <0>        -0.0919 
      29 C22        0.5262    0.8133    4.2413 C.ar      1 <0>        -0.0639 
      30 Cl1        1.6217    0.5665    5.5704 Cl        1 <0>        -0.0632 
      31 H1         6.0317   -9.2845    6.0569 H         1 <0>         0.0596 
      32 H2         7.0473   -8.5061    4.8235 H         1 <0>         0.0563 
      33 H3         6.6342   -7.6327    6.3150 H         1 <0>         0.0575 
      34 H4         5.2707   -6.8437    4.4016 H         1 <0>         0.0784 
      35 H5         3.6262   -8.3757    3.3799 H         1 <0>         0.0596 
      36 H6         4.2516   -9.7137    4.3681 H         1 <0>         0.0574 
      37 H7         5.2818   -8.9694    3.1260 H         1 <0>         0.0563 
      38 H8         3.9186   -5.4039    5.5611 H         1 <0>         0.1285 
      39 H9         2.0322   -4.9907    7.1613 H         1 <0>         0.1293 
      40 H10        1.8800   -9.1300    8.1452 H         1 <0>         0.1227 
      41 H11        3.8104   -9.5704    6.6581 H         1 <0>         0.1262 
      42 H12       -1.1569   -7.8747    7.4127 H         1 <0>         0.1329 
      43 H13       -1.9341   -6.6805    8.4749 H         1 <0>         0.1329 
      44 H14       -0.8417   -4.4193    8.9224 H         1 <0>         0.1063 
      45 H15       -2.5608   -4.7606    8.6285 H         1 <0>         0.1054 
      46 H16        0.0586   -2.9326    6.5535 H         1 <0>         0.0686 
      47 H17        0.8235   -1.4470    7.1586 H         1 <0>         0.0794 
      48 H18        0.7155   -2.8801    8.2039 H         1 <0>         0.0778 
      49 H19       -2.4590   -0.2569    8.0841 H         1 <0>         0.1198 
      50 H20       -0.8794    0.0401    8.8426 H         1 <0>         0.1233 
      51 H21       -1.8533   -1.0453    5.4848 H         1 <0>         0.4142 
      52 H22       -2.7084    0.2414    3.3453 H         1 <0>         0.1473 
      53 H23       -1.9123    1.3377    1.2760 H         1 <0>         0.1337 
      54 H24        0.4424    2.1018    1.0958 H         1 <0>         0.1349 
      55 H25        2.0054    1.7511    2.9862 H         1 <0>         0.1385 
@<TRIPOS>BOND
       1        1        2 1        
       2        1       31 1        
       3        1       32 1        
       4        1       33 1        
       5        2        3 1        
       6        2        4 1        
       7        2       34 1        
       8        3       35 1        
       9        3       36 1        
      10        3       37 1        
      11        4        9 ar       
      12        4        5 ar       
      13        5        6 ar       
      14        5       38 1        
      15        6        7 ar       
      16        6       39 1        
      17        7        8 ar       
      18        7       10 1        
      19        8        9 ar       
      20        8       40 1        
      21        9       41 1        
      22       10       11 1        
      23       11       12 1        
      24       11       42 1        
      25       11       43 1        
      26       12       13 2        
      27       12       14 1        
      28       14       15 1        
      29       15       16 1        
      30       15       44 1        
      31       15       45 1        
      32       16       17 2        
      33       16       18 am       
      34       18       19 1        
      35       18       20 1        
      36       19       46 1        
      37       19       47 1        
      38       19       48 1        
      39       20       21 1        
      40       20       49 1        
      41       20       50 1        
      42       21       22 2        
      43       21       23 am       
      44       23       24 1        
      45       23       51 1        
      46       24       29 ar       
      47       24       25 ar       
      48       25       26 ar       
      49       25       52 1        
      50       26       27 ar       
      51       26       53 1        
      52       27       28 ar       
      53       27       54 1        
      54       28       29 ar       
      55       28       55 1        
      56       29       30 1        

