#        scan_R01_S0078_C0000_L00001_S0001_C0003_G0010_E0001.mol2
#        Mon Jun 19 14:14:57 2017
#        Descriptor:     27    19    34     1     3     3
#        Energy - RMSD - RMSD MassCentre:     -36.2021    999.9999    999.9999
#        Receptor:       1  Surface Point:    78  Conformer:     0
#        Ligand:         1  Surface Point:     1  Conformer:     3
#        BUDE Formal Charge: 0
#        ATOM Count: 27
#        Heavy ATOM Count: 17
@<TRIPOS>MOLECULE
pdb1gcz_ligA.pdb_scan_R01_S0078_C0000_L00001_S0001_C0003_G0010_E0001
27 28 1 0 0
SMALL
GASTEIGER
@<TRIPOS>ATOM
       1 C3         5.9904    1.3810    0.8998 C.3       1 YZ9900      0.0513 
       2 C11        5.3846    0.7087    2.1285 C.3       1 YZ9900      0.2089 
       3 O1         3.6790    2.6593    1.6835 O.2       1 YZ9900     -0.2447 
       4 O2         3.9889    0.4870    1.9099 O.3       1 YZ9900     -0.4453 
       5 C6        -1.3454    3.3159    0.7804 C.ar      1 YZ9900      0.0063 
       6 C5         0.9523    2.4344    1.2399 C.ar      1 YZ9900      0.0160 
       7 C4        -2.3886    0.7328    0.8105 C.ar      1 YZ9900      0.0796 
       8 O3        -0.1987   -0.1713    1.2536 O.2       1 YZ9900     -0.4208 
       9 C2        -0.4955    2.2291    1.0113 C.ar      1 YZ9900      0.0353 
      10 C1        -1.0196    0.9310    1.0264 C.ar      1 YZ9900      0.1519 
      11 C7         1.1632    0.0272    1.4683 C.ar      1 YZ9900      0.3521 
      12 C12        3.2035    1.5630    1.6908 C.2       1 YZ9900      0.3476 
      13 O4        -4.5762    1.5728    0.3729 O.3       1 YZ9900     -0.2865 
      14 O5         1.8643   -0.9517    1.6653 O.2       1 YZ9900     -0.2442 
      15 C10       -2.7136    3.1120    0.5650 C.ar      1 YZ9900      0.0422 
      16 C9         1.7527    1.3846    1.4594 C.ar      1 YZ9900      0.1515 
      17 C8        -3.2439    1.8165    0.5790 C.ar      1 YZ9900      0.1988 
      18 H31        5.5031    2.3397    0.7345 H         1 YZ9900      0.0000 
      19 H32        7.0550    1.5376    1.0608 H         1 YZ9900      0.0000 
      20 H33        5.8444    0.7444    0.0298 H         1 YZ9900      0.0000 
      21 H112       5.5175    1.3507    2.9966 H         1 YZ9900      0.0000 
      22 H113       5.8796   -0.2444    2.3022 H         1 YZ9900      0.0000 
      23 H6        -0.9481    4.3201    0.7672 H         1 YZ9900      0.0000 
      24 H5         1.3469    3.4397    1.2263 H         1 YZ9900      0.0000 
      25 H4        -2.7883   -0.2705    0.8232 H         1 YZ9900      0.0000 
      26 HO4       -4.7634    0.6213    0.3993 H         1 YZ9900      0.0000 
      27 H10       -3.3482    3.9680    0.3891 H         1 YZ9900      0.0000 
@<TRIPOS>BOND
       1       13       17 1        
       2        7       17 ar       
       3        7       10 ar       
       4        8       10 ar       
       5        8       11 ar       
       6       14       11 2        
       7       17       15 ar       
       8       10        9 ar       
       9       11       16 ar       
      10        2        4 1        
      11        2        1 1        
      12       15        5 ar       
      13        9        5 ar       
      14        9        6 ar       
      15       16        6 ar       
      16       16       12 1        
      17        4       12 1        
      18       12        3 2        
      19       18        1 1        
      20       19        1 1        
      21       20        1 1        
      22       21        2 1        
      23       22        2 1        
      24       23        5 1        
      25       24        6 1        
      26       25        7 1        
      27       26       13 1        
      28       27       15 1        
@<TRIPOS>SUBSTRUCTURE
 1 YZ9900 10 RESIDUE 4 A YZ9900 0 ROOT

