#        scan_R01_S0079_C0000_L00001_S0001_C0000_G0010_E0001.mol2
#        Mon Jun 19 14:14:58 2017
#        Descriptor:     16    21    10     3     2     4
#        Energy - RMSD - RMSD MassCentre:     -33.1610    999.9999    999.9999
#        Receptor:       1  Surface Point:    79  Conformer:     0
#        Ligand:         1  Surface Point:     1  Conformer:     0
#        BUDE Formal Charge: 0
#        ATOM Count: 27
#        Heavy ATOM Count: 17
@<TRIPOS>MOLECULE
pdb1gcz_ligA.pdb_scan_R01_S0079_C0000_L00001_S0001_C0000_G0010_E0001
27 28 1 0 0
SMALL
GASTEIGER
@<TRIPOS>ATOM
       1 C3        -1.4203   -4.4785    2.3468 C.3       1 YZ9900      0.0513 
       2 C11       -1.6328   -3.0377    1.9797 C.3       1 YZ9900      0.2089 
       3 O1         0.1758   -2.0286    4.7030 O.2       1 YZ9900     -0.2447 
       4 O2        -1.4845   -2.1921    3.1895 O.3       1 YZ9900     -0.4453 
       5 C6         3.8444    0.6396    2.0627 C.ar      1 YZ9900      0.0063 
       6 C5         1.7816   -0.4739    2.9927 C.ar      1 YZ9900      0.0160 
       7 C4         2.1271    2.4039    0.4601 C.ar      1 YZ9900      0.0796 
       8 O3         0.2286    1.2733    1.4120 O.2       1 YZ9900     -0.4208 
       9 C2         2.4332    0.5461    2.1142 C.ar      1 YZ9900      0.0353 
      10 C1         1.6147    1.4136    1.3276 C.ar      1 YZ9900      0.1519 
      11 C7        -0.3643    0.3396    2.1207 C.ar      1 YZ9900      0.3521 
      12 C12       -0.3186   -1.6710    3.6774 C.2       1 YZ9900      0.3476 
      13 O4         4.1605    3.3576   -0.3513 O.3       1 YZ9900     -0.2865 
      14 O5        -1.5275    0.2708    2.0890 O.2       1 YZ9900     -0.2442 
      15 C10        4.4125    1.6219    1.2003 C.ar      1 YZ9900      0.0422 
      16 C9         0.4201   -0.5996    2.9331 C.ar      1 YZ9900      0.1515 
      17 C8         3.5587    2.4553    0.4427 C.ar      1 YZ9900      0.1988 
      18 H31       -0.4282   -4.6008    2.7815 H         1 YZ9900      0.0000 
      19 H32       -2.1746   -4.7833    3.0723 H         1 YZ9900      0.0000 
      20 H33       -1.5045   -5.0972    1.4534 H         1 YZ9900      0.0000 
      21 H112      -2.6345   -2.9114    1.5688 H         1 YZ9900      0.0000 
      22 H113      -0.8945   -2.7396    1.2352 H         1 YZ9900      0.0000 
      23 H6         4.4693   -0.0108    2.6565 H         1 YZ9900      0.0000 
      24 H5         2.3683   -1.0934    3.6547 H         1 YZ9900      0.0000 
      25 H4         1.5021    3.0570   -0.1308 H         1 YZ9900      0.0000 
      26 HO4        4.5750    2.9075   -1.0910 H         1 YZ9900      0.0000 
      27 H10        5.4847    1.7282    1.1264 H         1 YZ9900      0.0000 
@<TRIPOS>BOND
       1       13       17 1        
       2        7       17 ar       
       3        7       10 ar       
       4        8       10 ar       
       5        8       11 ar       
       6       14       11 2        
       7       17       15 ar       
       8       10        9 ar       
       9       11       16 ar       
      10        2        4 1        
      11        2        1 1        
      12       15        5 ar       
      13        9        5 ar       
      14        9        6 ar       
      15       16        6 ar       
      16       16       12 1        
      17        4       12 1        
      18       12        3 2        
      19       18        1 1        
      20       19        1 1        
      21       20        1 1        
      22       21        2 1        
      23       22        2 1        
      24       23        5 1        
      25       24        6 1        
      26       25        7 1        
      27       26       13 1        
      28       27       15 1        
@<TRIPOS>SUBSTRUCTURE
 1 YZ9900 10 RESIDUE 4 A YZ9900 0 ROOT

