#        scan_R01_S0079_C0000_L00001_S0001_C0002_G0010_E0001.mol2
#        Mon Jun 19 14:14:58 2017
#        Descriptor:     12    17     3     2     3     4
#        Energy - RMSD - RMSD MassCentre:     -31.3261    999.9999    999.9999
#        Receptor:       1  Surface Point:    79  Conformer:     0
#        Ligand:         1  Surface Point:     1  Conformer:     2
#        BUDE Formal Charge: 0
#        ATOM Count: 27
#        Heavy ATOM Count: 17
@<TRIPOS>MOLECULE
pdb1gcz_ligA.pdb_scan_R01_S0079_C0000_L00001_S0001_C0002_G0010_E0001
27 28 1 0 0
SMALL
GASTEIGER
@<TRIPOS>ATOM
       1 C3         6.7206    3.9428    1.0956 C.3       1 YZ9900      0.0513 
       2 C11        6.2668    2.6781    1.8189 C.3       1 YZ9900      0.2089 
       3 O1         4.9241    0.6787    2.8733 O.2       1 YZ9900     -0.2447 
       4 O2         4.8480    2.5450    1.6997 O.3       1 YZ9900     -0.4453 
       5 C6         0.0729   -1.0031    3.2301 C.ar      1 YZ9900      0.0063 
       6 C5         2.1890    0.2466    2.7530 C.ar      1 YZ9900      0.0160 
       7 C4        -1.4133    0.8961    1.8352 C.ar      1 YZ9900      0.0796 
       8 O3         0.5923    2.1400    1.3459 O.2       1 YZ9900     -0.4208 
       9 C2         0.7217    0.0881    2.6426 C.ar      1 YZ9900      0.0353 
      10 C1        -0.0251    1.0425    1.9417 C.ar      1 YZ9900      0.1519 
      11 C7         1.9736    2.2847    1.4525 C.ar      1 YZ9900      0.3521 
      12 C12        4.2610    1.4774    2.2813 C.2       1 YZ9900      0.3476 
      13 O4        -3.4280   -0.2943    2.2898 O.3       1 YZ9900     -0.2865 
      14 O5         2.4943    3.2529    0.9235 O.2       1 YZ9900     -0.2442 
      15 C10       -1.3157   -1.1446    3.1205 C.ar      1 YZ9900      0.0422 
      16 C9         2.7954    1.2960    2.1856 C.ar      1 YZ9900      0.1515 
      17 C8        -2.0681   -0.1938    2.4209 C.ar      1 YZ9900      0.1988 
      18 H31        6.2459    4.8099    1.5502 H         1 YZ9900      0.0000 
      19 H32        7.8016    4.0369    1.1750 H         1 YZ9900      0.0000 
      20 H33        6.4373    3.8816    0.0470 H         1 YZ9900      0.0000 
      21 H112       6.5371    2.7442    2.8707 H         1 YZ9900      0.0000 
      22 H113       6.7504    1.8113    1.3733 H         1 YZ9900      0.0000 
      23 H6         0.6424   -1.7433    3.7724 H         1 YZ9900      0.0000 
      24 H5         2.7561   -0.4952    3.2958 H         1 YZ9900      0.0000 
      25 H4        -1.9852    1.6350    1.2934 H         1 YZ9900      0.0000 
      26 HO4       -3.7855    0.4575    1.7917 H         1 YZ9900      0.0000 
      27 H10       -1.7922   -1.9963    3.5832 H         1 YZ9900      0.0000 
@<TRIPOS>BOND
       1       13       17 1        
       2        7       17 ar       
       3        7       10 ar       
       4        8       10 ar       
       5        8       11 ar       
       6       14       11 2        
       7       17       15 ar       
       8       10        9 ar       
       9       11       16 ar       
      10        2        4 1        
      11        2        1 1        
      12       15        5 ar       
      13        9        5 ar       
      14        9        6 ar       
      15       16        6 ar       
      16       16       12 1        
      17        4       12 1        
      18       12        3 2        
      19       18        1 1        
      20       19        1 1        
      21       20        1 1        
      22       21        2 1        
      23       22        2 1        
      24       23        5 1        
      25       24        6 1        
      26       25        7 1        
      27       26       13 1        
      28       27       15 1        
@<TRIPOS>SUBSTRUCTURE
 1 YZ9900 10 RESIDUE 4 A YZ9900 0 ROOT

