#        scan_R01_S0079_C0000_L00001_S0001_C0003_G0010_E0001.mol2
#        Mon Jun 19 14:43:06 2017
#        Descriptor:     10     1     2     3     3     4
#        Energy - RMSD - RMSD MassCentre:     -31.9887    999.9999    999.9999
#        Receptor:       1  Surface Point:    79  Conformer:     0
#        Ligand:         1  Surface Point:     1  Conformer:     3
#        BUDE Formal Charge: 0
#        ATOM Count: 27
#        Heavy ATOM Count: 17
@<TRIPOS>MOLECULE
pdb1gcz_ligA.pdb_scan_R01_S0079_C0000_L00001_S0001_C0003_G0010_E0001
27 28 1 0 0
SMALL
GASTEIGER
@<TRIPOS>ATOM
       1 C3        -3.7246   -3.3757   -0.7481 C.3       1 YZ9900      0.0513 
       2 C11       -4.0478   -2.8485    0.6470 C.3       1 YZ9900      0.2089 
       3 O1        -1.4468   -3.2033    0.7922 O.2       1 YZ9900     -0.2447 
       4 O2        -3.1368   -1.7982    0.9815 O.3       1 YZ9900     -0.4453 
       5 C6         2.8067   -0.4952    1.8239 C.ar      1 YZ9900      0.0063 
       6 C5         0.4723   -1.3050    1.4211 C.ar      1 YZ9900      0.0160 
       7 C4         1.8688    2.0726    2.3607 C.ar      1 YZ9900      0.0796 
       8 O3        -0.3989    1.3480    1.9843 O.2       1 YZ9900     -0.4208 
       9 C2         1.4338   -0.2337    1.7652 C.ar      1 YZ9900      0.0353 
      10 C1         0.9624    1.0566    2.0349 C.ar      1 YZ9900      0.1519 
      11 C7        -1.2998    0.3363    1.6600 C.ar      1 YZ9900      0.3521 
      12 C12       -1.8200   -2.0927    1.0272 C.2       1 YZ9900      0.3476 
      13 O4         4.0919    2.8431    2.7442 O.3       1 YZ9900     -0.2865 
      14 O5        -2.4875    0.6127    1.6213 O.2       1 YZ9900     -0.2442 
      15 C10        3.7088    0.5246    2.1503 C.ar      1 YZ9900      0.0422 
      16 C9        -0.8382   -1.0393    1.3688 C.ar      1 YZ9900      0.1515 
      17 C8         3.2438    1.8169    2.4211 C.ar      1 YZ9900      0.1988 
      18 H31       -2.7111   -3.7714   -0.7598 H         1 YZ9900      0.0000 
      19 H32       -4.4261   -4.1656   -1.0080 H         1 YZ9900      0.0000 
      20 H33       -3.8067   -2.5653   -1.4694 H         1 YZ9900      0.0000 
      21 H112      -3.9523   -3.6547    1.3711 H         1 YZ9900      0.0000 
      22 H113      -5.0653   -2.4639    0.6633 H         1 YZ9900      0.0000 
      23 H6         3.1777   -1.4881    1.6170 H         1 YZ9900      0.0000 
      24 H5         0.8460   -2.2970    1.2147 H         1 YZ9900      0.0000 
      25 H4         1.5003    3.0665    2.5681 H         1 YZ9900      0.0000 
      26 HO4        3.6015    3.6688    2.8817 H         1 YZ9900      0.0000 
      27 H10        4.7637    0.2964    2.1888 H         1 YZ9900      0.0000 
@<TRIPOS>BOND
       1       13       17 1        
       2        7       17 ar       
       3        7       10 ar       
       4        8       10 ar       
       5        8       11 ar       
       6       14       11 2        
       7       17       15 ar       
       8       10        9 ar       
       9       11       16 ar       
      10        2        4 1        
      11        2        1 1        
      12       15        5 ar       
      13        9        5 ar       
      14        9        6 ar       
      15       16        6 ar       
      16       16       12 1        
      17        4       12 1        
      18       12        3 2        
      19       18        1 1        
      20       19        1 1        
      21       20        1 1        
      22       21        2 1        
      23       22        2 1        
      24       23        5 1        
      25       24        6 1        
      26       25        7 1        
      27       26       13 1        
      28       27       15 1        
@<TRIPOS>SUBSTRUCTURE
 1 YZ9900 10 RESIDUE 4 A YZ9900 0 ROOT

