#        scan_R01_S0079_C0000_L00001_S0001_C0003_G0010_E0001.mol2
#        Mon Jun 19 14:14:59 2017
#        Descriptor:     12     1    19     3     2     5
#        Energy - RMSD - RMSD MassCentre:     -32.7721    999.9999    999.9999
#        Receptor:       1  Surface Point:    79  Conformer:     0
#        Ligand:         1  Surface Point:     1  Conformer:     3
#        BUDE Formal Charge: 0
#        ATOM Count: 27
#        Heavy ATOM Count: 17
@<TRIPOS>MOLECULE
pdb1gcz_ligA.pdb_scan_R01_S0079_C0000_L00001_S0001_C0003_G0010_E0001
27 28 1 0 0
SMALL
GASTEIGER
@<TRIPOS>ATOM
       1 C3         6.4096    2.7535   -0.4893 C.3       1 YZ9900      0.0513 
       2 C11        6.5681    2.6879    1.0270 C.3       1 YZ9900      0.2089 
       3 O1         4.0277    3.3164    0.7758 O.2       1 YZ9900     -0.2447 
       4 O2         5.5128    1.8984    1.5820 O.3       1 YZ9900     -0.4453 
       5 C6        -0.5903    1.5181    2.1651 C.ar      1 YZ9900      0.0063 
       6 C5         1.8488    1.9236    1.7729 C.ar      1 YZ9900      0.0160 
       7 C4        -0.0181   -0.8057    3.5913 C.ar      1 YZ9900      0.0796 
       8 O3         2.3425   -0.4651    3.2442 O.2       1 YZ9900     -0.4208 
       9 C2         0.7402    1.1225    2.3383 C.ar      1 YZ9900      0.0353 
      10 C1         1.0278   -0.0452    3.0549 C.ar      1 YZ9900      0.1519 
      11 C7         3.3824    0.2924    2.7102 C.ar      1 YZ9900      0.3521 
      12 C12        4.2429    2.3154    1.3919 C.2       1 YZ9900      0.3476 
      13 O4        -2.3408   -1.1914    3.9643 O.3       1 YZ9900     -0.2865 
      14 O5         4.5263   -0.0930    2.8875 O.2       1 YZ9900     -0.2442 
      15 C10       -1.6325    0.7538    2.7035 C.ar      1 YZ9900      0.0422 
      16 C9         3.1165    1.5322    1.9470 C.ar      1 YZ9900      0.1515 
      17 C8        -1.3515   -0.4148    3.4211 C.ar      1 YZ9900      0.1988 
      18 H31        5.4564    3.2177   -0.7339 H         1 YZ9900      0.0000 
      19 H32        7.2201    3.3429   -0.9128 H         1 YZ9900      0.0000 
      20 H33        6.4396    1.7466   -0.9003 H         1 YZ9900      0.0000 
      21 H112       6.5243    3.6931    1.4408 H         1 YZ9900      0.0000 
      22 H113       7.5264    2.2352    1.2729 H         1 YZ9900      0.0000 
      23 H6        -0.8198    2.4177    1.6134 H         1 YZ9900      0.0000 
      24 H5         1.6165    2.8229    1.2217 H         1 YZ9900      0.0000 
      25 H4         0.2087   -1.7058    4.1434 H         1 YZ9900      0.0000 
      26 HO4       -1.9676   -1.9681    4.4098 H         1 YZ9900      0.0000 
      27 H10       -2.6510    1.0812    2.5555 H         1 YZ9900      0.0000 
@<TRIPOS>BOND
       1       13       17 1        
       2        7       17 ar       
       3        7       10 ar       
       4        8       10 ar       
       5        8       11 ar       
       6       14       11 2        
       7       17       15 ar       
       8       10        9 ar       
       9       11       16 ar       
      10        2        4 1        
      11        2        1 1        
      12       15        5 ar       
      13        9        5 ar       
      14        9        6 ar       
      15       16        6 ar       
      16       16       12 1        
      17        4       12 1        
      18       12        3 2        
      19       18        1 1        
      20       19        1 1        
      21       20        1 1        
      22       21        2 1        
      23       22        2 1        
      24       23        5 1        
      25       24        6 1        
      26       25        7 1        
      27       26       13 1        
      28       27       15 1        
@<TRIPOS>SUBSTRUCTURE
 1 YZ9900 10 RESIDUE 4 A YZ9900 0 ROOT

