#        1GCZ_R01_S0001_C0000_L00005_S0001_C0013_G0010_E0001.mol2
#        Tue Jun  6 09:55:39 2017
#        Descriptor:     24     6    11     7     7    14
#        Energy - RMSD - RMSD MassCentre:     -59.1382    999.9999    999.9999
#        Receptor:       1  Surface Point:     1  Conformer:     0
#        Ligand:         5  Surface Point:     1  Conformer:    13
#        BUDE Formal Charge: 0
#        ATOM Count: 55
#        Heavy ATOM Count: 30
@<TRIPOS>MOLECULE
ZINC61464195_1GCZ_R01_S0001_C0000_L00005_S0001_C0013_G0010_E0001
 55 56 0 0 0
SMALL
USER_CHARGES
@<TRIPOS>ATOM
       1 C1        -1.5173    1.2643   -2.2880 C.3       1 <0>        -0.1456 
       2 C2        -0.6515    0.1877   -1.6400 C.3       1 <0>        -0.0579 
       3 C3         0.7999    0.3715   -2.0740 C.3       1 <0>        -0.1456 
       4 C4        -0.7453    0.3045   -0.1375 C.ar      1 <0>        -0.0771 
       5 C5        -1.2489   -0.7844    0.5839 C.ar      1 <0>        -0.0943 
       6 C6        -1.2567   -0.7488    1.9833 C.ar      1 <0>        -0.0923 
       7 C7        -0.7585    0.3657    2.6686 C.ar      1 <0>        -0.1041 
       8 C8        -0.3015    1.4804    1.9555 C.ar      1 <0>        -0.1315 
       9 C9        -0.3287    1.4506    0.5561 C.ar      1 <0>        -0.0969 
      10 S1        -0.7156    0.3618    4.4382 S.3       1 <0>        -0.0341 
      11 C10        0.8746   -0.3195    5.0038 C.3       1 <0>        -0.1267 
      12 C11        0.9113   -0.3228    6.5134 C.2       1 <0>         0.4864 
      13 O1         1.5128    0.5274    7.0991 O.2       1 <0>        -0.4815 
      14 O2         0.2639   -1.2870    7.2016 O.3       1 <0>        -0.3231 
      15 C12       -0.4424   -2.2832    6.4574 C.3       1 <0>         0.0526 
      16 C13       -1.0901   -3.2579    7.4116 C.2       1 <0>         0.5250 
      17 O3        -0.8134   -4.4548    7.3493 O.2       1 <0>        -0.5082 
      18 N1        -1.9596   -2.8233    8.3192 N.am      1 <0>        -0.5981 
      19 C14       -2.2903   -1.3929    8.3936 C.3       1 <0>         0.0731 
      20 C15       -2.5893   -3.7736    9.2472 C.3       1 <0>         0.1010 
      21 C16       -2.6129   -3.1796   10.6354 C.2       1 <0>         0.4997 
      22 O4        -3.6660   -3.1409   11.2694 O.2       1 <0>        -0.5061 
      23 N2        -1.4948   -2.6987   11.1714 N.am      1 <0>        -0.6702 
      24 C17       -1.5168   -2.1421   12.4721 C.ar      1 <0>         0.1553 
      25 C18       -0.8153   -0.9606   12.7401 C.ar      1 <0>        -0.1106 
      26 C19       -0.8458   -0.4096   14.0267 C.ar      1 <0>        -0.0959 
      27 C20       -1.5667   -1.0391   15.0454 C.ar      1 <0>        -0.1208 
      28 C21       -2.2573   -2.2280   14.7819 C.ar      1 <0>        -0.0919 
      29 C22       -2.2342   -2.7758   13.4938 C.ar      1 <0>        -0.0639 
      30 Cl1       -3.0880   -4.2555   13.1632 Cl        1 <0>        -0.0632 
      31 H1        -1.1584    2.2466   -1.9880 H         1 <0>         0.0596 
      32 H2        -1.4603    1.1717   -3.3706 H         1 <0>         0.0563 
      33 H3        -2.5495    1.1408   -1.9668 H         1 <0>         0.0575 
      34 H4        -1.0015   -0.7949   -1.9492 H         1 <0>         0.0784 
      35 H5         1.4141   -0.4041   -1.6213 H         1 <0>         0.0596 
      36 H6         1.1530    1.3488   -1.7518 H         1 <0>         0.0574 
      37 H7         0.8654    0.3006   -3.1578 H         1 <0>         0.0563 
      38 H8        -1.6193   -1.6637    0.0779 H         1 <0>         0.1285 
      39 H9        -1.6301   -1.5651    2.5839 H         1 <0>         0.1293 
      40 H10        0.0625    2.3404    2.4978 H         1 <0>         0.1227 
      41 H11       -0.0061    2.3324    0.0225 H         1 <0>         0.1262 
      42 H12        0.9847   -1.3378    4.6368 H         1 <0>         0.1329 
      43 H13        1.6886    0.2940    4.6232 H         1 <0>         0.1329 
      44 H14        0.2532   -2.8160    5.8124 H         1 <0>         0.1063 
      45 H15       -1.2093   -1.8073    5.8500 H         1 <0>         0.1054 
      46 H16       -2.7275   -1.0729    7.4501 H         1 <0>         0.0686 
      47 H17       -3.0027   -1.2275    9.1990 H         1 <0>         0.0794 
      48 H18       -1.3847   -0.8215    8.5866 H         1 <0>         0.0778 
      49 H19       -3.6074   -3.9768    8.9218 H         1 <0>         0.1198 
      50 H20       -2.0196   -4.7004    9.2583 H         1 <0>         0.1233 
      51 H21       -0.6304   -2.7311   10.6498 H         1 <0>         0.4142 
      52 H22       -0.2562   -0.4695   11.9573 H         1 <0>         0.1473 
      53 H23       -0.3102    0.5062   14.2295 H         1 <0>         0.1337 
      54 H24       -1.5931   -0.6116   16.0368 H         1 <0>         0.1349 
      55 H25       -2.8094   -2.7192   15.5695 H         1 <0>         0.1385 
@<TRIPOS>BOND
       1        1        2 1        
       2        1       31 1        
       3        1       32 1        
       4        1       33 1        
       5        2        3 1        
       6        2        4 1        
       7        2       34 1        
       8        3       35 1        
       9        3       36 1        
      10        3       37 1        
      11        4        9 ar       
      12        4        5 ar       
      13        5        6 ar       
      14        5       38 1        
      15        6        7 ar       
      16        6       39 1        
      17        7        8 ar       
      18        7       10 1        
      19        8        9 ar       
      20        8       40 1        
      21        9       41 1        
      22       10       11 1        
      23       11       12 1        
      24       11       42 1        
      25       11       43 1        
      26       12       13 2        
      27       12       14 1        
      28       14       15 1        
      29       15       16 1        
      30       15       44 1        
      31       15       45 1        
      32       16       17 2        
      33       16       18 am       
      34       18       19 1        
      35       18       20 1        
      36       19       46 1        
      37       19       47 1        
      38       19       48 1        
      39       20       21 1        
      40       20       49 1        
      41       20       50 1        
      42       21       22 2        
      43       21       23 am       
      44       23       24 1        
      45       23       51 1        
      46       24       29 ar       
      47       24       25 ar       
      48       25       26 ar       
      49       25       52 1        
      50       26       27 ar       
      51       26       53 1        
      52       27       28 ar       
      53       27       54 1        
      54       28       29 ar       
      55       28       55 1        
      56       29       30 1        

