#        scan_R01_S0080_C0000_L00001_S0001_C0000_G0010_E0001.mol2
#        Mon Jun 19 14:14:59 2017
#        Descriptor:     10    18    14     1     3     1
#        Energy - RMSD - RMSD MassCentre:     -52.8844    999.9999    999.9999
#        Receptor:       1  Surface Point:    80  Conformer:     0
#        Ligand:         1  Surface Point:     1  Conformer:     0
#        BUDE Formal Charge: 0
#        ATOM Count: 27
#        Heavy ATOM Count: 17
@<TRIPOS>MOLECULE
pdb1gcz_ligA.pdb_scan_R01_S0080_C0000_L00001_S0001_C0000_G0010_E0001
27 28 1 0 0
SMALL
GASTEIGER
@<TRIPOS>ATOM
       1 C3         1.7761   -0.7978    2.8855 C.3       1 YZ9900      0.0513 
       2 C11        0.3819   -0.7835    2.3270 C.3       1 YZ9900      0.2089 
       3 O1         0.6403    2.5586    1.6421 O.2       1 YZ9900     -0.2447 
       4 O2        -0.1641    0.5942    2.3955 O.3       1 YZ9900     -0.4453 
       5 C6        -0.1858    2.2022   -3.5289 C.ar      1 YZ9900      0.0063 
       6 C5        -0.1134    2.0171   -1.0149 C.ar      1 YZ9900      0.0160 
       7 C4        -2.7068    0.6940   -3.5325 C.ar      1 YZ9900      0.0796 
       8 O3        -2.5384    0.5792   -1.1351 O.2       1 YZ9900     -0.4208 
       9 C2        -0.7766    1.7443   -2.3272 C.ar      1 YZ9900      0.0353 
      10 C1        -2.0037    1.0127   -2.3493 C.ar      1 YZ9900      0.1519 
      11 C7        -1.9389    0.7446    0.0219 C.ar      1 YZ9900      0.3521 
      12 C12       -0.0103    1.5756    1.4564 C.2       1 YZ9900      0.3476 
      13 O4        -2.6423    0.9292   -5.9080 O.3       1 YZ9900     -0.2865 
      14 O5        -2.4406    0.3031    0.9770 O.2       1 YZ9900     -0.2442 
      15 C10       -0.8548    1.9046   -4.7518 C.ar      1 YZ9900      0.0422 
      16 C9        -0.6633    1.4672    0.1112 C.ar      1 YZ9900      0.1515 
      17 C8        -2.0661    1.1772   -4.7192 C.ar      1 YZ9900      0.1988 
      18 H31        2.4020   -0.1080    2.3191 H         1 YZ9900      0.0000 
      19 H32        1.7516   -0.4907    3.9310 H         1 YZ9900      0.0000 
      20 H33        2.1865   -1.8048    2.8121 H         1 YZ9900      0.0000 
      21 H112      -0.2497   -1.4540    2.9099 H         1 YZ9900      0.0000 
      22 H113       0.4027   -1.1149    1.2888 H         1 YZ9900      0.0000 
      23 H6         0.7399    2.7582   -3.5197 H         1 YZ9900      0.0000 
      24 H5         0.7738    2.6302   -0.9574 H         1 YZ9900      0.0000 
      25 H4        -3.6346    0.1413   -3.5414 H         1 YZ9900      0.0000 
      26 HO4       -2.1244    0.2770   -6.3854 H         1 YZ9900      0.0000 
      27 H10       -0.4400    2.2316   -5.6939 H         1 YZ9900      0.0000 
@<TRIPOS>BOND
       1       13       17 1        
       2        7       17 ar       
       3        7       10 ar       
       4        8       10 ar       
       5        8       11 ar       
       6       14       11 2        
       7       17       15 ar       
       8       10        9 ar       
       9       11       16 ar       
      10        2        4 1        
      11        2        1 1        
      12       15        5 ar       
      13        9        5 ar       
      14        9        6 ar       
      15       16        6 ar       
      16       16       12 1        
      17        4       12 1        
      18       12        3 2        
      19       18        1 1        
      20       19        1 1        
      21       20        1 1        
      22       21        2 1        
      23       22        2 1        
      24       23        5 1        
      25       24        6 1        
      26       25        7 1        
      27       26       13 1        
      28       27       15 1        
@<TRIPOS>SUBSTRUCTURE
 1 YZ9900 10 RESIDUE 4 A YZ9900 0 ROOT

