#        scan_R01_S0080_C0000_L00001_S0001_C0002_G0010_E0001.mol2
#        Mon Jun 19 14:43:07 2017
#        Descriptor:     17    31    22     1     3     2
#        Energy - RMSD - RMSD MassCentre:     -49.3660    999.9999    999.9999
#        Receptor:       1  Surface Point:    80  Conformer:     0
#        Ligand:         1  Surface Point:     1  Conformer:     2
#        BUDE Formal Charge: 0
#        ATOM Count: 27
#        Heavy ATOM Count: 17
@<TRIPOS>MOLECULE
pdb1gcz_ligA.pdb_scan_R01_S0080_C0000_L00001_S0001_C0002_G0010_E0001
27 28 1 0 0
SMALL
GASTEIGER
@<TRIPOS>ATOM
       1 C3         2.9693    4.6363    5.0663 C.3       1 YZ9900      0.0513 
       2 C11        2.9063    4.7779    3.5482 C.3       1 YZ9900      0.2089 
       3 O1         2.3826    4.5651    0.9806 O.2       1 YZ9900     -0.2447 
       4 O2         1.9692    3.8352    3.0209 O.3       1 YZ9900     -0.4453 
       5 C6        -0.5841    1.7867   -2.1769 C.ar      1 YZ9900      0.0063 
       6 C5         0.6100    2.8115   -0.2298 C.ar      1 YZ9900      0.0160 
       7 C4        -1.9609    0.0602   -0.4784 C.ar      1 YZ9900      0.0796 
       8 O3        -0.8407    1.0098    1.4328 O.2       1 YZ9900     -0.4208 
       9 C2        -0.3553    1.8442   -0.7981 C.ar      1 YZ9900      0.0353 
      10 C1        -1.0470    0.9766    0.0555 C.ar      1 YZ9900      0.1519 
      11 C7         0.0688    1.9221    1.9628 C.ar      1 YZ9900      0.3521 
      12 C12        1.7778    3.8124    1.6847 C.2       1 YZ9900      0.3476 
      13 O4        -3.0976   -0.9153   -2.3329 O.3       1 YZ9900     -0.2865 
      14 O5         0.2346    1.9347    3.1714 O.2       1 YZ9900     -0.2442 
      15 C10       -1.4991    0.8683   -2.7055 C.ar      1 YZ9900      0.0422 
      16 C9         0.8182    2.8545    1.0914 C.ar      1 YZ9900      0.1515 
      17 C8        -2.1940   -0.0020   -1.8573 C.ar      1 YZ9900      0.1988 
      18 H31        3.2981    3.6313    5.3228 H         1 YZ9900      0.0000 
      19 H32        3.6724    5.3625    5.4686 H         1 YZ9900      0.0000 
      20 H33        1.9822    4.8142    5.4877 H         1 YZ9900      0.0000 
      21 H112       3.8899    4.5863    3.1243 H         1 YZ9900      0.0000 
      22 H113       2.5897    5.7862    3.2901 H         1 YZ9900      0.0000 
      23 H6        -0.0541    2.4529   -2.8415 H         1 YZ9900      0.0000 
      24 H5         1.1386    3.4766   -0.8967 H         1 YZ9900      0.0000 
      25 H4        -2.4922   -0.6071    0.1842 H         1 YZ9900      0.0000 
      26 HO4       -3.4696   -1.4447   -1.6101 H         1 YZ9900      0.0000 
      27 H10       -1.6575    0.8442   -3.7735 H         1 YZ9900      0.0000 
@<TRIPOS>BOND
       1       13       17 1        
       2        7       17 ar       
       3        7       10 ar       
       4        8       10 ar       
       5        8       11 ar       
       6       14       11 2        
       7       17       15 ar       
       8       10        9 ar       
       9       11       16 ar       
      10        2        4 1        
      11        2        1 1        
      12       15        5 ar       
      13        9        5 ar       
      14        9        6 ar       
      15       16        6 ar       
      16       16       12 1        
      17        4       12 1        
      18       12        3 2        
      19       18        1 1        
      20       19        1 1        
      21       20        1 1        
      22       21        2 1        
      23       22        2 1        
      24       23        5 1        
      25       24        6 1        
      26       25        7 1        
      27       26       13 1        
      28       27       15 1        
@<TRIPOS>SUBSTRUCTURE
 1 YZ9900 10 RESIDUE 4 A YZ9900 0 ROOT

