#        scan_R01_S0080_C0000_L00001_S0001_C0002_G0010_E0001.mol2
#        Mon Jun 19 14:15:00 2017
#        Descriptor:      6    34    30     3     3     5
#        Energy - RMSD - RMSD MassCentre:     -45.3587    999.9999    999.9999
#        Receptor:       1  Surface Point:    80  Conformer:     0
#        Ligand:         1  Surface Point:     1  Conformer:     2
#        BUDE Formal Charge: 0
#        ATOM Count: 27
#        Heavy ATOM Count: 17
@<TRIPOS>MOLECULE
pdb1gcz_ligA.pdb_scan_R01_S0080_C0000_L00001_S0001_C0002_G0010_E0001
27 28 1 0 0
SMALL
GASTEIGER
@<TRIPOS>ATOM
       1 C3        -2.9927    6.4534    5.9939 C.3       1 YZ9900      0.0513 
       2 C11       -3.1530    4.9374    6.0612 C.3       1 YZ9900      0.2089 
       3 O1        -2.9223    2.3294    5.8215 O.2       1 YZ9900     -0.2447 
       4 O2        -2.1082    4.3146    5.3093 O.3       1 YZ9900     -0.4453 
       5 C6         0.1540   -1.1218    3.5596 C.ar      1 YZ9900      0.0063 
       6 C5        -0.9791    0.9397    4.4163 C.ar      1 YZ9900      0.0160 
       7 C4         2.0734    0.4225    2.2585 C.ar      1 YZ9900      0.0796 
       8 O3         1.0235    2.4404    3.0554 O.2       1 YZ9900     -0.4208 
       9 C2         0.0931    0.2732    3.6440 C.ar      1 YZ9900      0.0353 
      10 C1         1.0575    1.0493    2.9901 C.ar      1 YZ9900      0.1519 
      11 C7         0.0124    3.0629    3.7837 C.ar      1 YZ9900      0.3521 
      12 C12       -2.0857    2.9659    5.2533 C.2       1 YZ9900      0.3476 
      13 O4         3.1519   -1.5409    1.4431 O.3       1 YZ9900     -0.2865 
      14 O5         0.0009    4.2821    3.8281 O.2       1 YZ9900     -0.2442 
      15 C10        1.1720   -1.7434    2.8266 C.ar      1 YZ9900      0.0422 
      16 C9        -1.0241    2.2752    4.4876 C.ar      1 YZ9900      0.1515 
      17 C8         2.1394   -0.9731    2.1706 C.ar      1 YZ9900      0.1988 
      18 H31       -3.0618    6.7791    4.9580 H         1 YZ9900      0.0000 
      19 H32       -3.7799    6.9268    6.5769 H         1 YZ9900      0.0000 
      20 H33       -2.0225    6.7332    6.3988 H         1 YZ9900      0.0000 
      21 H112      -4.1172    4.6550    5.6436 H         1 YZ9900      0.0000 
      22 H113      -3.0966    4.6117    7.0977 H         1 YZ9900      0.0000 
      23 H6        -0.5866   -1.7269    4.0613 H         1 YZ9900      0.0000 
      24 H5        -1.7184    0.3321    4.9171 H         1 YZ9900      0.0000 
      25 H4         2.8152    1.0254    1.7559 H         1 YZ9900      0.0000 
      26 HO4        3.7172   -0.8606    1.0448 H         1 YZ9900      0.0000 
      27 H10        1.1964   -2.8220    2.7773 H         1 YZ9900      0.0000 
@<TRIPOS>BOND
       1       13       17 1        
       2        7       17 ar       
       3        7       10 ar       
       4        8       10 ar       
       5        8       11 ar       
       6       14       11 2        
       7       17       15 ar       
       8       10        9 ar       
       9       11       16 ar       
      10        2        4 1        
      11        2        1 1        
      12       15        5 ar       
      13        9        5 ar       
      14        9        6 ar       
      15       16        6 ar       
      16       16       12 1        
      17        4       12 1        
      18       12        3 2        
      19       18        1 1        
      20       19        1 1        
      21       20        1 1        
      22       21        2 1        
      23       22        2 1        
      24       23        5 1        
      25       24        6 1        
      26       25        7 1        
      27       26       13 1        
      28       27       15 1        
@<TRIPOS>SUBSTRUCTURE
 1 YZ9900 10 RESIDUE 4 A YZ9900 0 ROOT

