#        scan_R01_S0080_C0000_L00001_S0001_C0003_G0010_E0001.mol2
#        Mon Jun 19 14:43:08 2017
#        Descriptor:     19     6     3     1     3     3
#        Energy - RMSD - RMSD MassCentre:     -47.8245    999.9999    999.9999
#        Receptor:       1  Surface Point:    80  Conformer:     0
#        Ligand:         1  Surface Point:     1  Conformer:     3
#        BUDE Formal Charge: 0
#        ATOM Count: 27
#        Heavy ATOM Count: 17
@<TRIPOS>MOLECULE
pdb1gcz_ligA.pdb_scan_R01_S0080_C0000_L00001_S0001_C0003_G0010_E0001
27 28 1 0 0
SMALL
GASTEIGER
@<TRIPOS>ATOM
       1 C3        -2.7040    1.9510   -5.7241 C.3       1 YZ9900      0.0513 
       2 C11       -2.4084    0.5104   -5.3165 C.3       1 YZ9900      0.2089 
       3 O1        -0.6199    1.8436   -3.9251 O.2       1 YZ9900     -0.2447 
       4 O2        -2.3124    0.4292   -3.8920 O.3       1 YZ9900     -0.4453 
       5 C6         0.8202    2.4890    0.9739 C.ar      1 YZ9900      0.0063 
       6 C5        -0.2756    1.8191   -1.1750 C.ar      1 YZ9900      0.0160 
       7 C4        -0.9265    0.8695    2.4188 C.ar      1 YZ9900      0.0796 
       8 O3        -2.0190    0.1898    0.3807 O.2       1 YZ9900     -0.4208 
       9 C2        -0.1574    1.7506    0.2986 C.ar      1 YZ9900      0.0353 
      10 C1        -1.0352    0.9368    1.0246 C.ar      1 YZ9900      0.1519 
      11 C7        -2.1262    0.2575   -1.0065 C.ar      1 YZ9900      0.3521 
      12 C12       -1.3551    1.1577   -3.2793 C.2       1 YZ9900      0.3476 
      13 O4         0.1173    1.5078    4.4647 O.3       1 YZ9900     -0.2865 
      14 O5        -2.9945   -0.4046   -1.5505 O.2       1 YZ9900     -0.2442 
      15 C10        0.9244    2.4180    2.3682 C.ar      1 YZ9900      0.0422 
      16 C9        -1.2160    1.1068   -1.8068 C.ar      1 YZ9900      0.1515 
      17 C8         0.0498    1.6061    3.1000 C.ar      1 YZ9900      0.1988 
      18 H31       -1.8943    2.5956   -5.3882 H         1 YZ9900      0.0000 
      19 H32       -2.7903    2.0103   -6.8070 H         1 YZ9900      0.0000 
      20 H33       -3.6375    2.2722   -5.2671 H         1 YZ9900      0.0000 
      21 H112      -1.4679    0.1926   -5.7614 H         1 YZ9900      0.0000 
      22 H113      -3.2113   -0.1370   -5.6627 H         1 YZ9900      0.0000 
      23 H6         1.5008    3.1190    0.4204 H         1 YZ9900      0.0000 
      24 H5         0.4063    2.4498   -1.7260 H         1 YZ9900      0.0000 
      25 H4        -1.6059    0.2402    2.9746 H         1 YZ9900      0.0000 
      26 HO4       -0.5729    0.9172    4.8050 H         1 YZ9900      0.0000 
      27 H10        1.6879    2.9980    2.8653 H         1 YZ9900      0.0000 
@<TRIPOS>BOND
       1       13       17 1        
       2        7       17 ar       
       3        7       10 ar       
       4        8       10 ar       
       5        8       11 ar       
       6       14       11 2        
       7       17       15 ar       
       8       10        9 ar       
       9       11       16 ar       
      10        2        4 1        
      11        2        1 1        
      12       15        5 ar       
      13        9        5 ar       
      14        9        6 ar       
      15       16        6 ar       
      16       16       12 1        
      17        4       12 1        
      18       12        3 2        
      19       18        1 1        
      20       19        1 1        
      21       20        1 1        
      22       21        2 1        
      23       22        2 1        
      24       23        5 1        
      25       24        6 1        
      26       25        7 1        
      27       26       13 1        
      28       27       15 1        
@<TRIPOS>SUBSTRUCTURE
 1 YZ9900 10 RESIDUE 4 A YZ9900 0 ROOT

