#        scan_R01_S0080_C0000_L00001_S0001_C0003_G0010_E0001.mol2
#        Mon Jun 19 14:15:01 2017
#        Descriptor:     29    13    14     2     3     3
#        Energy - RMSD - RMSD MassCentre:     -47.3663    999.9999    999.9999
#        Receptor:       1  Surface Point:    80  Conformer:     0
#        Ligand:         1  Surface Point:     1  Conformer:     3
#        BUDE Formal Charge: 0
#        ATOM Count: 27
#        Heavy ATOM Count: 17
@<TRIPOS>MOLECULE
pdb1gcz_ligA.pdb_scan_R01_S0080_C0000_L00001_S0001_C0003_G0010_E0001
27 28 1 0 0
SMALL
GASTEIGER
@<TRIPOS>ATOM
       1 C3        -3.2839    0.9267   -5.1832 C.3       1 YZ9900      0.0513 
       2 C11       -3.8647    1.8767   -4.1397 C.3       1 YZ9900      0.2089 
       3 O1        -3.1960   -0.1976   -2.6694 O.2       1 YZ9900     -0.2447 
       4 O2        -2.9697    1.9672   -3.0281 O.3       1 YZ9900     -0.4453 
       5 C6        -0.2525   -1.3027    1.4056 C.ar      1 YZ9900      0.0063 
       6 C5        -1.4874   -0.2257   -0.4872 C.ar      1 YZ9900      0.0160 
       7 C4         0.8788    1.1424    2.1148 C.ar      1 YZ9900      0.0796 
       8 O3        -0.2858    2.2317    0.3076 O.2       1 YZ9900     -0.4208 
       9 C2        -0.5638   -0.1561    0.6672 C.ar      1 YZ9900      0.0353 
      10 C1         0.0047    1.0726    1.0234 C.ar      1 YZ9900      0.1519 
      11 C7        -1.1557    2.1611   -0.7781 C.ar      1 YZ9900      0.3521 
      12 C12       -2.6958    0.8371   -2.3421 C.2       1 YZ9900      0.3476 
      13 O4         2.0545    0.1163    3.9170 O.3       1 YZ9900     -0.2865 
      14 O5        -1.3967    3.1878   -1.3914 O.2       1 YZ9900     -0.2442 
      15 C10        0.6223   -1.2272    2.4961 C.ar      1 YZ9900      0.0422 
      16 C9        -1.7754    0.8799   -1.1839 C.ar      1 YZ9900      0.1515 
      17 C8         1.1940   -0.0016    2.8575 C.ar      1 YZ9900      0.1988 
      18 H31       -3.1645   -0.0623   -4.7456 H         1 YZ9900      0.0000 
      19 H32       -3.9584    0.8683   -6.0348 H         1 YZ9900      0.0000 
      20 H33       -2.3155    1.2980   -5.5117 H         1 YZ9900      0.0000 
      21 H112      -4.8268    1.4991   -3.8001 H         1 YZ9900      0.0000 
      22 H113      -3.9963    2.8630   -4.5797 H         1 YZ9900      0.0000 
      23 H6        -0.6873   -2.2540    1.1366 H         1 YZ9900      0.0000 
      24 H5        -1.9208   -1.1783   -0.7540 H         1 YZ9900      0.0000 
      25 H4         1.3149    2.0926    2.3859 H         1 YZ9900      0.0000 
      26 HO4        2.3661    1.0300    4.0113 H         1 YZ9900      0.0000 
      27 H10        0.8461   -2.1272    3.0496 H         1 YZ9900      0.0000 
@<TRIPOS>BOND
       1       13       17 1        
       2        7       17 ar       
       3        7       10 ar       
       4        8       10 ar       
       5        8       11 ar       
       6       14       11 2        
       7       17       15 ar       
       8       10        9 ar       
       9       11       16 ar       
      10        2        4 1        
      11        2        1 1        
      12       15        5 ar       
      13        9        5 ar       
      14        9        6 ar       
      15       16        6 ar       
      16       16       12 1        
      17        4       12 1        
      18       12        3 2        
      19       18        1 1        
      20       19        1 1        
      21       20        1 1        
      22       21        2 1        
      23       22        2 1        
      24       23        5 1        
      25       24        6 1        
      26       25        7 1        
      27       26       13 1        
      28       27       15 1        
@<TRIPOS>SUBSTRUCTURE
 1 YZ9900 10 RESIDUE 4 A YZ9900 0 ROOT

