#        scan_R01_S0081_C0000_L00001_S0001_C0000_G0010_E0001.mol2
#        Mon Jun 19 14:43:09 2017
#        Descriptor:     36    25     3     1     2     4
#        Energy - RMSD - RMSD MassCentre:     -44.3805    999.9999    999.9999
#        Receptor:       1  Surface Point:    81  Conformer:     0
#        Ligand:         1  Surface Point:     1  Conformer:     0
#        BUDE Formal Charge: 0
#        ATOM Count: 27
#        Heavy ATOM Count: 17
@<TRIPOS>MOLECULE
pdb1gcz_ligA.pdb_scan_R01_S0081_C0000_L00001_S0001_C0000_G0010_E0001
27 28 1 0 0
SMALL
GASTEIGER
@<TRIPOS>ATOM
       1 C3         0.7812   -3.3084   -1.4522 C.3       1 YZ9900      0.0513 
       2 C11        0.1137   -3.2362   -0.1086 C.3       1 YZ9900      0.2089 
       3 O1         2.2056   -0.7029    0.8464 O.2       1 YZ9900     -0.2447 
       4 O2         1.0467   -2.6342    0.8752 O.3       1 YZ9900     -0.4453 
       5 C6        -1.5264    2.8615    1.8038 C.ar      1 YZ9900      0.0063 
       6 C5        -0.0529    0.8342    1.5226 C.ar      1 YZ9900      0.0160 
       7 C4        -3.2274    1.3269    3.6427 C.ar      1 YZ9900      0.0796 
       8 O3        -1.7537   -0.5444    3.3029 O.2       1 YZ9900     -0.4208 
       9 C2        -1.2400    1.5138    2.1272 C.ar      1 YZ9900      0.0353 
      10 C1        -2.0791    0.7840    3.0243 C.ar      1 YZ9900      0.1519 
      11 C7        -0.7591   -1.1833    2.7301 C.ar      1 YZ9900      0.3521 
      12 C12        1.2114   -1.3006    1.1265 C.2       1 YZ9900      0.3476 
      13 O4        -4.5443    3.3123    3.8048 O.3       1 YZ9900     -0.2865 
      14 O5        -0.5961   -2.3077    2.9903 O.2       1 YZ9900     -0.2442 
      15 C10       -2.6764    3.4562    2.3998 C.ar      1 YZ9900      0.0422 
      16 C9         0.1271   -0.4977    1.7804 C.ar      1 YZ9900      0.1515 
      17 C8        -3.4740    2.6908    3.2805 C.ar      1 YZ9900      0.1988 
      18 H31        1.0766   -2.3071   -1.7660 H         1 YZ9900      0.0000 
      19 H32        1.6646   -3.9433   -1.3851 H         1 YZ9900      0.0000 
      20 H33        0.0870   -3.7275   -2.1806 H         1 YZ9900      0.0000 
      21 H112      -0.1584   -4.2405    0.2162 H         1 YZ9900      0.0000 
      22 H113      -0.7839   -2.6220   -0.1812 H         1 YZ9900      0.0000 
      23 H6        -0.8952    3.4201    1.1288 H         1 YZ9900      0.0000 
      24 H5         0.6421    1.3787    0.9006 H         1 YZ9900      0.0000 
      25 H4        -3.8565    0.7693    4.3208 H         1 YZ9900      0.0000 
      26 HO4       -5.2076    3.4388    3.1225 H         1 YZ9900      0.0000 
      27 H10       -2.9358    4.4814    2.1806 H         1 YZ9900      0.0000 
@<TRIPOS>BOND
       1       13       17 1        
       2        7       17 ar       
       3        7       10 ar       
       4        8       10 ar       
       5        8       11 ar       
       6       14       11 2        
       7       17       15 ar       
       8       10        9 ar       
       9       11       16 ar       
      10        2        4 1        
      11        2        1 1        
      12       15        5 ar       
      13        9        5 ar       
      14        9        6 ar       
      15       16        6 ar       
      16       16       12 1        
      17        4       12 1        
      18       12        3 2        
      19       18        1 1        
      20       19        1 1        
      21       20        1 1        
      22       21        2 1        
      23       22        2 1        
      24       23        5 1        
      25       24        6 1        
      26       25        7 1        
      27       26       13 1        
      28       27       15 1        
@<TRIPOS>SUBSTRUCTURE
 1 YZ9900 10 RESIDUE 4 A YZ9900 0 ROOT

