#        scan_R01_S0081_C0000_L00001_S0001_C0000_G0010_E0001.mol2
#        Mon Jun 19 14:15:01 2017
#        Descriptor:     18     1     7     1     3     6
#        Energy - RMSD - RMSD MassCentre:     -41.7510    999.9999    999.9999
#        Receptor:       1  Surface Point:    81  Conformer:     0
#        Ligand:         1  Surface Point:     1  Conformer:     0
#        BUDE Formal Charge: 0
#        ATOM Count: 27
#        Heavy ATOM Count: 17
@<TRIPOS>MOLECULE
pdb1gcz_ligA.pdb_scan_R01_S0081_C0000_L00001_S0001_C0000_G0010_E0001
27 28 1 0 0
SMALL
GASTEIGER
@<TRIPOS>ATOM
       1 C3        -3.3598    5.4975    3.5105 C.3       1 YZ9900      0.0513 
       2 C11       -3.4078    4.2070    4.2775 C.3       1 YZ9900      0.2089 
       3 O1        -2.8336    2.4283    1.4118 O.2       1 YZ9900     -0.2447 
       4 O2        -3.7535    3.0968    3.3562 O.3       1 YZ9900     -0.4453 
       5 C6         1.5842    0.0849    3.0058 C.ar      1 YZ9900      0.0063 
       6 C5        -0.6788    1.1547    2.6986 C.ar      1 YZ9900      0.0160 
       7 C4         0.6482   -1.0876    5.5316 C.ar      1 YZ9900      0.0796 
       8 O3        -1.4728   -0.0225    5.1372 O.2       1 YZ9900     -0.4208 
       9 C2         0.2693    0.3033    3.4814 C.ar      1 YZ9900      0.0353 
      10 C1        -0.1678   -0.2761    4.7121 C.ar      1 YZ9900      0.1519 
      11 C7        -2.2993    0.7785    4.5039 C.ar      1 YZ9900      0.3521 
      12 C12       -2.8783    2.3653    2.6027 C.2       1 YZ9900      0.3476 
      13 O4         2.8369   -2.0268    5.7052 O.3       1 YZ9900     -0.2865 
      14 O5        -3.3536    0.9673    4.9638 O.2       1 YZ9900     -0.2442 
      15 C10        2.4492   -0.7255    3.7973 C.ar      1 YZ9900      0.0422 
      16 C9        -1.9039    1.4247    3.2457 C.ar      1 YZ9900      0.1515 
      17 C8         1.9682   -1.2750    5.0074 C.ar      1 YZ9900      0.1988 
      18 H31       -2.6230    5.4183    2.7110 H         1 YZ9900      0.0000 
      19 H32       -4.3408    5.7014    3.0813 H         1 YZ9900      0.0000 
      20 H33       -3.0813    6.3092    4.1824 H         1 YZ9900      0.0000 
      21 H112      -4.1629    4.2777    5.0605 H         1 YZ9900      0.0000 
      22 H113      -2.4339    4.0155    4.7280 H         1 YZ9900      0.0000 
      23 H6         1.9205    0.5172    2.0752 H         1 YZ9900      0.0000 
      24 H5        -0.4047    1.5453    1.7297 H         1 YZ9900      0.0000 
      25 H4         0.3106   -1.5232    6.4604 H         1 YZ9900      0.0000 
      26 HO4        3.5116   -1.4629    6.0901 H         1 YZ9900      0.0000 
      27 H10        3.4621   -0.9176    3.4756 H         1 YZ9900      0.0000 
@<TRIPOS>BOND
       1       13       17 1        
       2        7       17 ar       
       3        7       10 ar       
       4        8       10 ar       
       5        8       11 ar       
       6       14       11 2        
       7       17       15 ar       
       8       10        9 ar       
       9       11       16 ar       
      10        2        4 1        
      11        2        1 1        
      12       15        5 ar       
      13        9        5 ar       
      14        9        6 ar       
      15       16        6 ar       
      16       16       12 1        
      17        4       12 1        
      18       12        3 2        
      19       18        1 1        
      20       19        1 1        
      21       20        1 1        
      22       21        2 1        
      23       22        2 1        
      24       23        5 1        
      25       24        6 1        
      26       25        7 1        
      27       26       13 1        
      28       27       15 1        
@<TRIPOS>SUBSTRUCTURE
 1 YZ9900 10 RESIDUE 4 A YZ9900 0 ROOT

