#        scan_R01_S0081_C0000_L00001_S0001_C0003_G0010_E0001.mol2
#        Mon Jun 19 14:43:10 2017
#        Descriptor:     29    35    33     1     3     5
#        Energy - RMSD - RMSD MassCentre:     -54.8444    999.9999    999.9999
#        Receptor:       1  Surface Point:    81  Conformer:     0
#        Ligand:         1  Surface Point:     1  Conformer:     3
#        BUDE Formal Charge: 0
#        ATOM Count: 27
#        Heavy ATOM Count: 17
@<TRIPOS>MOLECULE
pdb1gcz_ligA.pdb_scan_R01_S0081_C0000_L00001_S0001_C0003_G0010_E0001
27 28 1 0 0
SMALL
GASTEIGER
@<TRIPOS>ATOM
       1 C3        -4.9961    5.8094    6.1499 C.3       1 YZ9900      0.0513 
       2 C11       -5.2928    5.5714    4.6720 C.3       1 YZ9900      0.2089 
       3 O1        -2.6703    5.3958    4.7321 O.2       1 YZ9900     -0.2447 
       4 O2        -4.5800    4.4156    4.2238 O.3       1 YZ9900     -0.4453 
       5 C6         1.0426    2.0450    3.5164 C.ar      1 YZ9900      0.0063 
       6 C5        -1.1136    3.2538    3.9133 C.ar      1 YZ9900      0.0160 
       7 C4        -0.3305   -0.1648    2.5199 C.ar      1 YZ9900      0.0796 
       8 O3        -2.4359    0.9516    2.8808 O.2       1 YZ9900     -0.4208 
       9 C2        -0.3548    2.0686    3.4550 C.ar      1 YZ9900      0.0353 
      10 C1        -1.0448    0.9582    2.9544 C.ar      1 YZ9900      0.1519 
      11 C7        -3.1455    2.0695    3.3133 C.ar      1 YZ9900      0.3521 
      12 C12       -3.2322    4.4337    4.3001 C.2       1 YZ9900      0.3476 
      13 O4         1.7229   -1.3152    2.1422 O.3       1 YZ9900     -0.2865 
      14 O5        -4.3631    2.0431    3.2402 O.2       1 YZ9900     -0.2442 
      15 C10        1.7519    0.9194    3.0806 C.ar      1 YZ9900      0.0422 
      16 C9        -2.4502    3.2613    3.8484 C.ar      1 YZ9900      0.1515 
      17 C8         1.0678   -0.1941    2.5789 C.ar      1 YZ9900      0.1988 
      18 H31       -3.9297    5.9799    6.2821 H         1 YZ9900      0.0000 
      19 H32       -5.5489    6.6809    6.4943 H         1 YZ9900      0.0000 
      20 H33       -5.2986    4.9368    6.7249 H         1 YZ9900      0.0000 
      21 H112      -4.9777    6.4377    4.0942 H         1 YZ9900      0.0000 
      22 H113      -6.3606    5.4132    4.5368 H         1 YZ9900      0.0000 
      23 H6         1.5816    2.8980    3.9014 H         1 YZ9900      0.0000 
      24 H5        -0.5720    4.1054    4.2979 H         1 YZ9900      0.0000 
      25 H4        -0.8673   -1.0191    2.1344 H         1 YZ9900      0.0000 
      26 HO4        1.0940   -1.9918    1.8459 H         1 YZ9900      0.0000 
      27 H10        2.8303    0.9267    3.1386 H         1 YZ9900      0.0000 
@<TRIPOS>BOND
       1       13       17 1        
       2        7       17 ar       
       3        7       10 ar       
       4        8       10 ar       
       5        8       11 ar       
       6       14       11 2        
       7       17       15 ar       
       8       10        9 ar       
       9       11       16 ar       
      10        2        4 1        
      11        2        1 1        
      12       15        5 ar       
      13        9        5 ar       
      14        9        6 ar       
      15       16        6 ar       
      16       16       12 1        
      17        4       12 1        
      18       12        3 2        
      19       18        1 1        
      20       19        1 1        
      21       20        1 1        
      22       21        2 1        
      23       22        2 1        
      24       23        5 1        
      25       24        6 1        
      26       25        7 1        
      27       26       13 1        
      28       27       15 1        
@<TRIPOS>SUBSTRUCTURE
 1 YZ9900 10 RESIDUE 4 A YZ9900 0 ROOT

