#        1GCZ_R01_S0001_C0000_L00005_S0001_C0013_G0010_E0001.mol2
#        Tue Jun  6 14:05:59 2017
#        Descriptor:      7    13    31     8     8    13
#        Energy - RMSD - RMSD MassCentre:     -66.2902    999.9999    999.9999
#        Receptor:       1  Surface Point:     1  Conformer:     0
#        Ligand:         5  Surface Point:     1  Conformer:    13
#        BUDE Formal Charge: 0
#        ATOM Count: 55
#        Heavy ATOM Count: 30
@<TRIPOS>MOLECULE
ZINC61464195_1GCZ_R01_S0001_C0000_L00005_S0001_C0013_G0010_E0001
 55 56 0 0 0
SMALL
USER_CHARGES
@<TRIPOS>ATOM
       1 C1        -1.1118    0.1080   -3.5346 C.3       1 <0>        -0.1456 
       2 C2         0.1245   -0.2896   -2.7332 C.3       1 <0>        -0.0579 
       3 C3         1.3402    0.4647   -3.2642 C.3       1 <0>        -0.1456 
       4 C4        -0.0863    0.0576   -1.2789 C.ar      1 <0>        -0.0771 
       5 C5        -0.0560   -0.9775   -0.3370 C.ar      1 <0>        -0.0943 
       6 C6        -0.1479   -0.6800    1.0278 C.ar      1 <0>        -0.0923 
       7 C7        -0.2636    0.6467    1.4597 C.ar      1 <0>        -0.1041 
       8 C8        -0.3476    1.6839    0.5232 C.ar      1 <0>        -0.1315 
       9 C9        -0.2893    1.3750   -0.8410 C.ar      1 <0>        -0.0969 
      10 S1        -0.3104    1.0054    3.1924 S.3       1 <0>        -0.0341 
      11 C10        1.3839    1.2720    3.8014 C.3       1 <0>        -0.1267 
      12 C11        1.3441    1.5781    5.2796 C.2       1 <0>         0.4864 
      13 O1         1.4480    2.7060    5.6600 O.2       1 <0>        -0.4815 
      14 O2         1.1908    0.5767    6.1718 O.3       1 <0>        -0.3231 
      15 C12        1.0705   -0.7568    5.6695 C.3       1 <0>         0.0526 
      16 C13        0.9088   -1.7161    6.8243 C.2       1 <0>         0.5250 
      17 O3         1.7164   -2.6304    6.9814 O.2       1 <0>        -0.5082 
      18 N1        -0.1062   -1.5731    7.6717 N.am      1 <0>        -0.5981 
      19 C14       -1.0713   -0.4803    7.4840 C.3       1 <0>         0.0731 
      20 C15       -0.2621   -2.5079    8.7954 C.3       1 <0>         0.1010 
      21 C16       -0.6288   -1.7385   10.0419 C.2       1 <0>         0.4997 
      22 O4        -1.6071   -2.0757   10.7067 O.2       1 <0>        -0.5061 
      23 N2         0.1063   -0.6966   10.4201 N.am      1 <0>        -0.6702 
      24 C17       -0.2373    0.0243   11.5881 C.ar      1 <0>         0.1553 
      25 C18       -0.1848    1.4233   11.5882 C.ar      1 <0>        -0.1106 
      26 C19       -0.5325    2.1327   12.7439 C.ar      1 <0>        -0.0959 
      27 C20       -0.9235    1.4493   13.8988 C.ar      1 <0>        -0.1208 
      28 C21       -0.9633    0.0499   13.9040 C.ar      1 <0>        -0.0919 
      29 C22       -0.6235   -0.6606   12.7465 C.ar      1 <0>        -0.0639 
      30 Cl1       -0.6678   -2.4000   12.7501 Cl        1 <0>        -0.0632 
      31 H1        -1.2698    1.1810   -3.4479 H         1 <0>         0.0596 
      32 H2        -0.9652   -0.1544   -4.5802 H         1 <0>         0.0563 
      33 H3        -1.9802   -0.4197   -3.1459 H         1 <0>         0.0575 
      34 H4         0.2909   -1.3604   -2.8292 H         1 <0>         0.0784 
      35 H5         2.2231    0.1711   -2.7004 H         1 <0>         0.0596 
      36 H6         1.1784    1.5350   -3.1547 H         1 <0>         0.0574 
      37 H7         1.4841    0.2248   -4.3157 H         1 <0>         0.0563 
      38 H8         0.0536   -2.0069   -0.6449 H         1 <0>         0.1285 
      39 H9        -0.1245   -1.4426    1.7922 H         1 <0>         0.1293 
      40 H10       -0.4556    2.7006    0.8707 H         1 <0>         0.1227 
      41 H11       -0.3914    2.1832   -1.5501 H         1 <0>         0.1262 
      42 H12        1.9758    0.3747    3.6334 H         1 <0>         0.1329 
      43 H13        1.8334    2.1086    3.2705 H         1 <0>         0.1329 
      44 H14        1.9651   -1.0151    5.1067 H         1 <0>         0.1063 
      45 H15        0.2006   -0.8230    5.0193 H         1 <0>         0.1054 
      46 H16       -1.5608   -0.5915    6.5187 H         1 <0>         0.0686 
      47 H17       -1.8167   -0.5157    8.2757 H         1 <0>         0.0794 
      48 H18       -0.5493    0.4737    7.5188 H         1 <0>         0.0778 
      49 H19       -1.0493   -3.2228    8.5650 H         1 <0>         0.1198 
      50 H20        0.6740   -3.0380    8.9579 H         1 <0>         0.1233 
      51 H21        0.9095   -0.4206    9.8734 H         1 <0>         0.4142 
      52 H22        0.1169    1.9572   10.6991 H         1 <0>         0.1473 
      53 H23       -0.4986    3.2124   12.7396 H         1 <0>         0.1337 
      54 H24       -1.1954    1.9971   14.7888 H         1 <0>         0.1349 
      55 H25       -1.2588   -0.4799   14.7975 H         1 <0>         0.1385 
@<TRIPOS>BOND
       1        1        2 1        
       2        1       31 1        
       3        1       32 1        
       4        1       33 1        
       5        2        3 1        
       6        2        4 1        
       7        2       34 1        
       8        3       35 1        
       9        3       36 1        
      10        3       37 1        
      11        4        9 ar       
      12        4        5 ar       
      13        5        6 ar       
      14        5       38 1        
      15        6        7 ar       
      16        6       39 1        
      17        7        8 ar       
      18        7       10 1        
      19        8        9 ar       
      20        8       40 1        
      21        9       41 1        
      22       10       11 1        
      23       11       12 1        
      24       11       42 1        
      25       11       43 1        
      26       12       13 2        
      27       12       14 1        
      28       14       15 1        
      29       15       16 1        
      30       15       44 1        
      31       15       45 1        
      32       16       17 2        
      33       16       18 am       
      34       18       19 1        
      35       18       20 1        
      36       19       46 1        
      37       19       47 1        
      38       19       48 1        
      39       20       21 1        
      40       20       49 1        
      41       20       50 1        
      42       21       22 2        
      43       21       23 am       
      44       23       24 1        
      45       23       51 1        
      46       24       29 ar       
      47       24       25 ar       
      48       25       26 ar       
      49       25       52 1        
      50       26       27 ar       
      51       26       53 1        
      52       27       28 ar       
      53       27       54 1        
      54       28       29 ar       
      55       28       55 1        
      56       29       30 1        

