#        scan_R01_S0082_C0000_L00001_S0001_C0000_G0010_E0001.mol2
#        Mon Jun 19 14:43:10 2017
#        Descriptor:      9    19    26     1     1     6
#        Energy - RMSD - RMSD MassCentre:     -59.4261    999.9999    999.9999
#        Receptor:       1  Surface Point:    82  Conformer:     0
#        Ligand:         1  Surface Point:     1  Conformer:     0
#        BUDE Formal Charge: 0
#        ATOM Count: 27
#        Heavy ATOM Count: 17
@<TRIPOS>MOLECULE
pdb1gcz_ligA.pdb_scan_R01_S0082_C0000_L00001_S0001_C0000_G0010_E0001
27 28 1 0 0
SMALL
GASTEIGER
@<TRIPOS>ATOM
       1 C3        -1.3849    3.0123    7.1287 C.3       1 YZ9900      0.0513 
       2 C11       -0.6270    1.7316    6.9256 C.3       1 YZ9900      0.2089 
       3 O1        -3.5221    0.0894    6.1337 O.2       1 YZ9900     -0.2447 
       4 O2        -1.5465    0.5803    7.0979 O.3       1 YZ9900     -0.4453 
       5 C6        -2.0764   -1.4427    1.3262 C.ar      1 YZ9900      0.0063 
       6 C5        -2.3090   -0.7877    3.7505 C.ar      1 YZ9900      0.0160 
       7 C4         0.4663   -2.7683    1.9645 C.ar      1 YZ9900      0.0796 
       8 O3         0.1424   -2.0928    4.2508 O.2       1 YZ9900     -0.4208 
       9 C2        -1.5609   -1.4607    2.6441 C.ar      1 YZ9900      0.0353 
      10 C1        -0.3226   -2.1113    2.9349 C.ar      1 YZ9900      0.1519 
      11 C7        -0.4601   -1.4484    5.2242 C.ar      1 YZ9900      0.3521 
      12 C12       -2.3310    0.0165    6.1307 C.2       1 YZ9900      0.3476 
      13 O4         0.5684   -3.3074   -0.3596 O.3       1 YZ9900     -0.2865 
      14 O5         0.0319   -1.4495    6.2809 O.2       1 YZ9900     -0.2442 
      15 C10       -1.3170   -2.0899    0.3086 C.ar      1 YZ9900      0.0422 
      16 C9        -1.7242   -0.7393    4.9869 C.ar      1 YZ9900      0.1515 
      17 C8        -0.0977   -2.7187    0.6485 C.ar      1 YZ9900      0.1988 
      18 H31       -2.2062    3.0664    6.4140 H         1 YZ9900      0.0000 
      19 H32       -1.7836    3.0413    8.1428 H         1 YZ9900      0.0000 
      20 H33       -0.7151    3.8587    6.9774 H         1 YZ9900      0.0000 
      21 H112       0.1783    1.6661    7.6573 H         1 YZ9900      0.0000 
      22 H113      -0.2066    1.7136    5.9200 H         1 YZ9900      0.0000 
      23 H6        -3.0130   -0.9554    1.0995 H         1 YZ9900      0.0000 
      24 H5        -3.2823   -0.3524    3.5788 H         1 YZ9900      0.0000 
      25 H4         1.4011   -3.2590    2.1919 H         1 YZ9900      0.0000 
      26 HO4        0.9379   -2.6344   -0.9358 H         1 YZ9900      0.0000 
      27 H10       -1.6696   -2.0996   -0.7123 H         1 YZ9900      0.0000 
@<TRIPOS>BOND
       1       13       17 1        
       2        7       17 ar       
       3        7       10 ar       
       4        8       10 ar       
       5        8       11 ar       
       6       14       11 2        
       7       17       15 ar       
       8       10        9 ar       
       9       11       16 ar       
      10        2        4 1        
      11        2        1 1        
      12       15        5 ar       
      13        9        5 ar       
      14        9        6 ar       
      15       16        6 ar       
      16       16       12 1        
      17        4       12 1        
      18       12        3 2        
      19       18        1 1        
      20       19        1 1        
      21       20        1 1        
      22       21        2 1        
      23       22        2 1        
      24       23        5 1        
      25       24        6 1        
      26       25        7 1        
      27       26       13 1        
      28       27       15 1        
@<TRIPOS>SUBSTRUCTURE
 1 YZ9900 10 RESIDUE 4 A YZ9900 0 ROOT

