#        scan_R01_S0082_C0000_L00001_S0001_C0000_G0010_E0001.mol2
#        Mon Jun 19 14:15:03 2017
#        Descriptor:     32    24    30     1     2     7
#        Energy - RMSD - RMSD MassCentre:     -51.3753    999.9999    999.9999
#        Receptor:       1  Surface Point:    82  Conformer:     0
#        Ligand:         1  Surface Point:     1  Conformer:     0
#        BUDE Formal Charge: 0
#        ATOM Count: 27
#        Heavy ATOM Count: 17
@<TRIPOS>MOLECULE
pdb1gcz_ligA.pdb_scan_R01_S0082_C0000_L00001_S0001_C0000_G0010_E0001
27 28 1 0 0
SMALL
GASTEIGER
@<TRIPOS>ATOM
       1 C3        -2.3111   -2.1002    0.5384 C.3       1 YZ9900      0.0513 
       2 C11       -2.7499   -1.9786    1.9697 C.3       1 YZ9900      0.2089 
       3 O1         0.4594   -2.4796    3.0448 O.2       1 YZ9900     -0.2447 
       4 O2        -1.7759   -2.6743    2.8462 O.3       1 YZ9900     -0.4453 
       5 C6         0.9663    2.0581    5.6336 C.ar      1 YZ9900      0.0063 
       6 C5         0.2675   -0.1093    4.5501 C.ar      1 YZ9900      0.0160 
       7 C4        -1.4066    1.9199    7.3599 C.ar      1 YZ9900      0.0796 
       8 O3        -1.9775   -0.1422    6.2595 O.2       1 YZ9900     -0.4208 
       9 C2         0.0475    0.9853    5.5451 C.ar      1 YZ9900      0.0353 
      10 C1        -1.1006    0.9354    6.3940 C.ar      1 YZ9900      0.1519 
      11 C7        -1.8438   -1.0768    5.3462 C.ar      1 YZ9900      0.3521 
      12 C12       -0.6353   -2.1393    3.3768 C.2       1 YZ9900      0.3476 
      13 O4        -0.6380    3.9821    8.2867 O.3       1 YZ9900     -0.2865 
      14 O5        -2.6556   -1.9106    5.2797 O.2       1 YZ9900     -0.2442 
      15 C10        0.7021    3.0798    6.5915 C.ar      1 YZ9900      0.0422 
      16 C9        -0.6986   -1.0708    4.4265 C.ar      1 YZ9900      0.1515 
      17 C8        -0.4482    2.9836    7.4071 C.ar      1 YZ9900      0.1988 
      18 H31       -1.3162   -1.6693    0.4250 H         1 YZ9900      0.0000 
      19 H32       -2.2856   -3.1523    0.2546 H         1 YZ9900      0.0000 
      20 H33       -3.0131   -1.5677   -0.1032 H         1 YZ9900      0.0000 
      21 H112      -3.7338   -2.4327    2.0878 H         1 YZ9900      0.0000 
      22 H113      -2.8000   -0.9255    2.2463 H         1 YZ9900      0.0000 
      23 H6         1.8378    2.1010    4.9973 H         1 YZ9900      0.0000 
      24 H5         1.1625   -0.1402    3.9466 H         1 YZ9900      0.0000 
      25 H4        -2.2760    1.8749    7.9990 H         1 YZ9900      0.0000 
      26 HO4       -0.8915    4.7796    7.8165 H         1 YZ9900      0.0000 
      27 H10        1.3741    3.9192    6.6931 H         1 YZ9900      0.0000 
@<TRIPOS>BOND
       1       13       17 1        
       2        7       17 ar       
       3        7       10 ar       
       4        8       10 ar       
       5        8       11 ar       
       6       14       11 2        
       7       17       15 ar       
       8       10        9 ar       
       9       11       16 ar       
      10        2        4 1        
      11        2        1 1        
      12       15        5 ar       
      13        9        5 ar       
      14        9        6 ar       
      15       16        6 ar       
      16       16       12 1        
      17        4       12 1        
      18       12        3 2        
      19       18        1 1        
      20       19        1 1        
      21       20        1 1        
      22       21        2 1        
      23       22        2 1        
      24       23        5 1        
      25       24        6 1        
      26       25        7 1        
      27       26       13 1        
      28       27       15 1        
@<TRIPOS>SUBSTRUCTURE
 1 YZ9900 10 RESIDUE 4 A YZ9900 0 ROOT

