#        scan_R01_S0082_C0000_L00001_S0001_C0002_G0010_E0001.mol2
#        Mon Jun 19 14:43:11 2017
#        Descriptor:     25    23     9     1     1     5
#        Energy - RMSD - RMSD MassCentre:     -53.3895    999.9999    999.9999
#        Receptor:       1  Surface Point:    82  Conformer:     0
#        Ligand:         1  Surface Point:     1  Conformer:     2
#        BUDE Formal Charge: 0
#        ATOM Count: 27
#        Heavy ATOM Count: 17
@<TRIPOS>MOLECULE
pdb1gcz_ligA.pdb_scan_R01_S0082_C0000_L00001_S0001_C0002_G0010_E0001
27 28 1 0 0
SMALL
GASTEIGER
@<TRIPOS>ATOM
       1 C3        -1.8095    3.4252    8.8657 C.3       1 YZ9900      0.0513 
       2 C11       -2.7769    2.4489    8.2028 C.3       1 YZ9900      0.2089 
       3 O1        -3.9662    0.6666    6.6793 O.2       1 YZ9900     -0.2447 
       4 O2        -2.1328    1.8224    7.0903 O.3       1 YZ9900     -0.4453 
       5 C6        -2.9416   -2.2545    2.5673 C.ar      1 YZ9900      0.0063 
       6 C5        -2.8931   -0.6526    4.4907 C.ar      1 YZ9900      0.0160 
       7 C4        -0.3095   -1.6164    1.9143 C.ar      1 YZ9900      0.0796 
       8 O3        -0.2064   -0.0604    3.7521 O.2       1 YZ9900     -0.4208 
       9 C2        -2.2468   -1.3138    3.3350 C.ar      1 YZ9900      0.0353 
      10 C1        -0.9242   -0.9931    3.0069 C.ar      1 YZ9900      0.1519 
      11 C7        -0.8190    0.5591    4.8390 C.ar      1 YZ9900      0.3521 
      12 C12       -2.8386    0.9203    6.3757 C.2       1 YZ9900      0.3476 
      13 O4        -0.3564   -3.1419    0.0830 O.3       1 YZ9900     -0.2865 
      14 O5        -0.1726    1.3727    5.4782 O.2       1 YZ9900     -0.2442 
      15 C10       -2.3221   -2.8748    1.4758 C.ar      1 YZ9900      0.0422 
      16 C9        -2.2154    0.2453    5.2155 C.ar      1 YZ9900      0.1515 
      17 C8        -0.9998   -2.5585    1.1425 C.ar      1 YZ9900      0.1988 
      18 H31       -1.5202    4.1911    8.1490 H         1 YZ9900      0.0000 
      19 H32       -2.2951    3.8920    9.7201 H         1 YZ9900      0.0000 
      20 H33       -0.9247    2.8875    9.1998 H         1 YZ9900      0.0000 
      21 H112      -3.6560    2.9878    7.8556 H         1 YZ9900      0.0000 
      22 H113      -3.0767    1.6897    8.9221 H         1 YZ9900      0.0000 
      23 H6        -3.9622   -2.5068    2.8145 H         1 YZ9900      0.0000 
      24 H5        -3.9137   -0.9069    4.7356 H         1 YZ9900      0.0000 
      25 H4         0.7110   -1.3658    1.6651 H         1 YZ9900      0.0000 
      26 HO4        0.5439   -2.7933   -0.0113 H         1 YZ9900      0.0000 
      27 H10       -2.8806   -3.5975    0.8994 H         1 YZ9900      0.0000 
@<TRIPOS>BOND
       1       13       17 1        
       2        7       17 ar       
       3        7       10 ar       
       4        8       10 ar       
       5        8       11 ar       
       6       14       11 2        
       7       17       15 ar       
       8       10        9 ar       
       9       11       16 ar       
      10        2        4 1        
      11        2        1 1        
      12       15        5 ar       
      13        9        5 ar       
      14        9        6 ar       
      15       16        6 ar       
      16       16       12 1        
      17        4       12 1        
      18       12        3 2        
      19       18        1 1        
      20       19        1 1        
      21       20        1 1        
      22       21        2 1        
      23       22        2 1        
      24       23        5 1        
      25       24        6 1        
      26       25        7 1        
      27       26       13 1        
      28       27       15 1        
@<TRIPOS>SUBSTRUCTURE
 1 YZ9900 10 RESIDUE 4 A YZ9900 0 ROOT

