#        scan_R01_S0082_C0000_L00001_S0001_C0002_G0010_E0001.mol2
#        Mon Jun 19 14:15:04 2017
#        Descriptor:     25    22    11     2     1     5
#        Energy - RMSD - RMSD MassCentre:     -47.0933    999.9999    999.9999
#        Receptor:       1  Surface Point:    82  Conformer:     0
#        Ligand:         1  Surface Point:     1  Conformer:     2
#        BUDE Formal Charge: 0
#        ATOM Count: 27
#        Heavy ATOM Count: 17
@<TRIPOS>MOLECULE
pdb1gcz_ligA.pdb_scan_R01_S0082_C0000_L00001_S0001_C0002_G0010_E0001
27 28 1 0 0
SMALL
GASTEIGER
@<TRIPOS>ATOM
       1 C3        -2.5996    3.7755    8.0082 C.3       1 YZ9900      0.0513 
       2 C11       -3.1404    2.4329    7.5249 C.3       1 YZ9900      0.2089 
       3 O1        -3.5671    0.1282    6.3340 O.2       1 YZ9900     -0.2447 
       4 O2        -2.2580    1.8919    6.5381 O.3       1 YZ9900     -0.4453 
       5 C6        -1.3763   -2.8956    2.7917 C.ar      1 YZ9900      0.0063 
       6 C5        -1.9844   -1.0828    4.4077 C.ar      1 YZ9900      0.0160 
       7 C4         0.9209   -1.5114    2.0379 C.ar      1 YZ9900      0.0796 
       8 O3         0.3846    0.2637    3.5775 O.2       1 YZ9900     -0.4208 
       9 C2        -1.0858   -1.6622    3.3844 C.ar      1 YZ9900      0.0353 
      10 C1         0.0685   -0.9666    3.0056 C.ar      1 YZ9900      0.1519 
      11 C7        -0.4642    0.8048    4.5403 C.ar      1 YZ9900      0.3521 
      12 C12       -2.5750    0.6991    5.9909 C.2       1 YZ9900      0.3476 
      13 O4         1.4995   -3.2380    0.4993 O.3       1 YZ9900     -0.2865 
      14 O5        -0.1689    1.8831    5.0286 O.2       1 YZ9900     -0.2442 
      15 C10       -0.5204   -3.4359    1.8245 C.ar      1 YZ9900      0.0422 
      16 C9        -1.6931    0.0982    4.9656 C.ar      1 YZ9900      0.1515 
      17 C8         0.6354   -2.7453    1.4414 C.ar      1 YZ9900      0.1988 
      18 H31       -2.5431    4.4662    7.1693 H         1 YZ9900      0.0000 
      19 H32       -3.2639    4.1807    8.7685 H         1 YZ9900      0.0000 
      20 H33       -1.6068    3.6350    8.4306 H         1 YZ9900      0.0000 
      21 H112      -4.1274    2.5743    7.0894 H         1 YZ9900      0.0000 
      22 H113      -3.2092    1.7452    8.3650 H         1 YZ9900      0.0000 
      23 H6        -2.2650   -3.4379    3.0790 H         1 YZ9900      0.0000 
      24 H5        -2.8724   -1.6272    4.6931 H         1 YZ9900      0.0000 
      25 H4         1.8103   -0.9711    1.7489 H         1 YZ9900      0.0000 
      26 HO4        2.2337   -2.6228    0.3458 H         1 YZ9900      0.0000 
      27 H10       -0.7675   -4.3897    1.3824 H         1 YZ9900      0.0000 
@<TRIPOS>BOND
       1       13       17 1        
       2        7       17 ar       
       3        7       10 ar       
       4        8       10 ar       
       5        8       11 ar       
       6       14       11 2        
       7       17       15 ar       
       8       10        9 ar       
       9       11       16 ar       
      10        2        4 1        
      11        2        1 1        
      12       15        5 ar       
      13        9        5 ar       
      14        9        6 ar       
      15       16        6 ar       
      16       16       12 1        
      17        4       12 1        
      18       12        3 2        
      19       18        1 1        
      20       19        1 1        
      21       20        1 1        
      22       21        2 1        
      23       22        2 1        
      24       23        5 1        
      25       24        6 1        
      26       25        7 1        
      27       26       13 1        
      28       27       15 1        
@<TRIPOS>SUBSTRUCTURE
 1 YZ9900 10 RESIDUE 4 A YZ9900 0 ROOT

