#        scan_R01_S0082_C0000_L00001_S0001_C0003_G0010_E0001.mol2
#        Mon Jun 19 14:15:05 2017
#        Descriptor:      6    23    13     1     1     6
#        Energy - RMSD - RMSD MassCentre:     -53.7320    999.9999    999.9999
#        Receptor:       1  Surface Point:    82  Conformer:     0
#        Ligand:         1  Surface Point:     1  Conformer:     3
#        BUDE Formal Charge: 0
#        ATOM Count: 27
#        Heavy ATOM Count: 17
@<TRIPOS>MOLECULE
pdb1gcz_ligA.pdb_scan_R01_S0082_C0000_L00001_S0001_C0003_G0010_E0001
27 28 1 0 0
SMALL
GASTEIGER
@<TRIPOS>ATOM
       1 C3        -1.4809    4.2231    8.6378 C.3       1 YZ9900      0.0513 
       2 C11       -2.8081    3.6875    8.1085 C.3       1 YZ9900      0.2089 
       3 O1        -1.2956    3.6027    5.9598 O.2       1 YZ9900     -0.2447 
       4 O2        -2.5752    2.4865    7.3680 O.3       1 YZ9900     -0.4453 
       5 C6         0.3469    0.1851    2.4794 C.ar      1 YZ9900      0.0063 
       6 C5        -0.7255    1.3862    4.3964 C.ar      1 YZ9900      0.0160 
       7 C4        -0.8151   -2.2173    3.2793 C.ar      1 YZ9900      0.0796 
       8 O3        -1.8724   -1.1124    5.1422 O.2       1 YZ9900     -0.4208 
       9 C2        -0.4703    0.1559    3.6144 C.ar      1 YZ9900      0.0353 
      10 C1        -1.0542   -1.0513    4.0164 C.ar      1 YZ9900      0.1519 
      11 C7        -2.1096    0.0484    5.8748 C.ar      1 YZ9900      0.3521 
      12 C12       -1.7804    2.5582    6.2790 C.2       1 YZ9900      0.3476 
      13 O4         0.2064   -3.3604    1.4537 O.3       1 YZ9900     -0.2865 
      14 O5        -2.8292   -0.0270    6.8572 O.2       1 YZ9900     -0.2442 
      15 C10        0.5827   -0.9838    1.7459 C.ar      1 YZ9900      0.0422 
      16 C9        -1.5095    1.3423    5.4800 C.ar      1 YZ9900      0.1515 
      17 C8         0.0017   -2.1941    2.1426 C.ar      1 YZ9900      0.1988 
      18 H31       -0.8217    4.4471    7.8016 H         1 YZ9900      0.0000 
      19 H32       -1.6597    5.1295    9.2124 H         1 YZ9900      0.0000 
      20 H33       -1.0168    3.4741    9.2758 H         1 YZ9900      0.0000 
      21 H112      -3.2666    4.4301    7.4589 H         1 YZ9900      0.0000 
      22 H113      -3.4728    3.4748    8.9431 H         1 YZ9900      0.0000 
      23 H6         0.8007    1.1127    2.1633 H         1 YZ9900      0.0000 
      24 H5        -0.2704    2.3125    4.0780 H         1 YZ9900      0.0000 
      25 H4        -1.2678   -3.1462    3.5933 H         1 YZ9900      0.0000 
      26 HO4       -0.2561   -4.1002    1.8779 H         1 YZ9900      0.0000 
      27 H10        1.2174   -0.9342    0.8735 H         1 YZ9900      0.0000 
@<TRIPOS>BOND
       1       13       17 1        
       2        7       17 ar       
       3        7       10 ar       
       4        8       10 ar       
       5        8       11 ar       
       6       14       11 2        
       7       17       15 ar       
       8       10        9 ar       
       9       11       16 ar       
      10        2        4 1        
      11        2        1 1        
      12       15        5 ar       
      13        9        5 ar       
      14        9        6 ar       
      15       16        6 ar       
      16       16       12 1        
      17        4       12 1        
      18       12        3 2        
      19       18        1 1        
      20       19        1 1        
      21       20        1 1        
      22       21        2 1        
      23       22        2 1        
      24       23        5 1        
      25       24        6 1        
      26       25        7 1        
      27       26       13 1        
      28       27       15 1        
@<TRIPOS>SUBSTRUCTURE
 1 YZ9900 10 RESIDUE 4 A YZ9900 0 ROOT

