#        scan_R01_S0083_C0000_L00001_S0001_C0000_G0010_E0001.mol2
#        Mon Jun 19 14:15:06 2017
#        Descriptor:     17    32    33     3     2     9
#        Energy - RMSD - RMSD MassCentre:     -63.4908    999.9999    999.9999
#        Receptor:       1  Surface Point:    83  Conformer:     0
#        Ligand:         1  Surface Point:     1  Conformer:     0
#        BUDE Formal Charge: 0
#        ATOM Count: 27
#        Heavy ATOM Count: 17
@<TRIPOS>MOLECULE
pdb1gcz_ligA.pdb_scan_R01_S0083_C0000_L00001_S0001_C0000_G0010_E0001
27 28 1 0 0
SMALL
GASTEIGER
@<TRIPOS>ATOM
       1 C3         3.9806    2.3343    3.5791 C.3       1 YZ9900      0.0513 
       2 C11        3.7244    2.2259    5.0550 C.3       1 YZ9900      0.2089 
       3 O1         0.3467    2.3560    4.5256 O.2       1 YZ9900     -0.2447 
       4 O2         2.3896    2.7926    5.3681 O.3       1 YZ9900     -0.4453 
       5 C6        -0.8081   -2.2705    6.7188 C.ar      1 YZ9900      0.0063 
       6 C5         0.0763   -0.0156    6.0164 C.ar      1 YZ9900      0.0160 
       7 C4         0.4796   -1.9216    9.3361 C.ar      1 YZ9900      0.0796 
       8 O3         1.2700    0.2153    8.5630 O.2       1 YZ9900     -0.4208 
       9 C2        -0.0702   -1.1041    7.0315 C.ar      1 YZ9900      0.0353 
      10 C1         0.5485   -0.9525    8.3104 C.ar      1 YZ9900      0.1519 
      11 C7         1.4721    1.1520    7.6644 C.ar      1 YZ9900      0.3521 
      12 C12        1.1963    2.1266    5.3315 C.2       1 YZ9900      0.3476 
      13 O4        -0.4056   -4.0756    9.8643 O.3       1 YZ9900     -0.2865 
      14 O5         2.1308    2.0689    7.9542 O.2       1 YZ9900     -0.2442 
      15 C10       -0.9062   -3.2809    7.7192 C.ar      1 YZ9900      0.0422 
      16 C9         0.8838    1.0460    6.3227 C.ar      1 YZ9900      0.1515 
      17 C8        -0.2753   -3.0823    8.9682 C.ar      1 YZ9900      0.1988 
      18 H31        3.2002    1.8027    3.0343 H         1 YZ9900      0.0000 
      19 H32        3.9770    3.3842    3.2861 H         1 YZ9900      0.0000 
      20 H33        4.9504    1.8952    3.3456 H         1 YZ9900      0.0000 
      21 H112       4.4904    2.7792    5.5983 H         1 YZ9900      0.0000 
      22 H113       3.7531    1.1778    5.3530 H         1 YZ9900      0.0000 
      23 H6        -1.2808   -2.3908    5.7553 H         1 YZ9900      0.0000 
      24 H5        -0.4401   -0.0659    5.0693 H         1 YZ9900      0.0000 
      25 H4         0.9491   -1.7996   10.3010 H         1 YZ9900      0.0000 
      26 HO4        0.1180   -4.8301    9.5848 H         1 YZ9900      0.0000 
      27 H10       -1.4570   -4.1893    7.5247 H         1 YZ9900      0.0000 
@<TRIPOS>BOND
       1       13       17 1        
       2        7       17 ar       
       3        7       10 ar       
       4        8       10 ar       
       5        8       11 ar       
       6       14       11 2        
       7       17       15 ar       
       8       10        9 ar       
       9       11       16 ar       
      10        2        4 1        
      11        2        1 1        
      12       15        5 ar       
      13        9        5 ar       
      14        9        6 ar       
      15       16        6 ar       
      16       16       12 1        
      17        4       12 1        
      18       12        3 2        
      19       18        1 1        
      20       19        1 1        
      21       20        1 1        
      22       21        2 1        
      23       22        2 1        
      24       23        5 1        
      25       24        6 1        
      26       25        7 1        
      27       26       13 1        
      28       27       15 1        
@<TRIPOS>SUBSTRUCTURE
 1 YZ9900 10 RESIDUE 4 A YZ9900 0 ROOT

