#        scan_R01_S0083_C0000_L00001_S0001_C0002_G0010_E0001.mol2
#        Mon Jun 19 14:43:13 2017
#        Descriptor:     30    16    11     1     1     9
#        Energy - RMSD - RMSD MassCentre:     -70.7673    999.9999    999.9999
#        Receptor:       1  Surface Point:    83  Conformer:     0
#        Ligand:         1  Surface Point:     1  Conformer:     2
#        BUDE Formal Charge: 0
#        ATOM Count: 27
#        Heavy ATOM Count: 17
@<TRIPOS>MOLECULE
pdb1gcz_ligA.pdb_scan_R01_S0083_C0000_L00001_S0001_C0002_G0010_E0001
27 28 1 0 0
SMALL
GASTEIGER
@<TRIPOS>ATOM
       1 C3        -4.0773    5.0812    4.1374 C.3       1 YZ9900      0.0513 
       2 C11       -4.4658    3.6099    4.0237 C.3       1 YZ9900      0.2089 
       3 O1        -4.6412    0.9921    4.1918 O.2       1 YZ9900     -0.2447 
       4 O2        -3.5442    2.8150    4.7745 O.3       1 YZ9900     -0.4453 
       5 C6        -2.1760   -2.9474    6.4039 C.ar      1 YZ9900      0.0063 
       6 C5        -2.9628   -0.7151    5.5884 C.ar      1 YZ9900      0.0160 
       7 C4        -0.0708   -1.7500    7.7807 C.ar      1 YZ9900      0.0796 
       8 O3        -0.7832    0.4250    7.0250 O.2       1 YZ9900     -0.4208 
       9 C2        -2.0213   -1.5579    6.3590 C.ar      1 YZ9900      0.0353 
      10 C1        -0.9634   -0.9561    7.0507 C.ar      1 YZ9900      0.1519 
      11 C7        -1.6720    1.2139    6.2983 C.ar      1 YZ9900      0.3521 
      12 C12       -3.7292    1.4778    4.7920 C.2       1 YZ9900      0.3476 
      13 O4         0.6780   -3.8759    8.5569 O.3       1 YZ9900     -0.2865 
      14 O5        -1.4961    2.4212    6.2890 O.2       1 YZ9900     -0.2442 
      15 C10       -1.2804   -3.7366    7.1355 C.ar      1 YZ9900      0.0422 
      16 C9        -2.8017    0.6129    5.5548 C.ar      1 YZ9900      0.1515 
      17 C8        -0.2206   -3.1410    7.8294 C.ar      1 YZ9900      0.1988 
      18 H31       -3.0775    5.2239    3.7324 H         1 YZ9900      0.0000 
      19 H32       -4.7862    5.6871    3.5771 H         1 YZ9900      0.0000 
      20 H33       -4.0915    5.3796    5.1835 H         1 YZ9900      0.0000 
      21 H112      -4.4383    3.3064    2.9793 H         1 YZ9900      0.0000 
      22 H113      -5.4703    3.4680    4.4169 H         1 YZ9900      0.0000 
      23 H6        -2.9898   -3.4187    5.8727 H         1 YZ9900      0.0000 
      24 H5        -3.7757   -1.1889    5.0582 H         1 YZ9900      0.0000 
      25 H4         0.7438   -1.2811    8.3128 H         1 YZ9900      0.0000 
      26 HO4        1.3528   -3.3041    8.9552 H         1 YZ9900      0.0000 
      27 H10       -1.4221   -4.8071    7.1540 H         1 YZ9900      0.0000 
@<TRIPOS>BOND
       1       13       17 1        
       2        7       17 ar       
       3        7       10 ar       
       4        8       10 ar       
       5        8       11 ar       
       6       14       11 2        
       7       17       15 ar       
       8       10        9 ar       
       9       11       16 ar       
      10        2        4 1        
      11        2        1 1        
      12       15        5 ar       
      13        9        5 ar       
      14        9        6 ar       
      15       16        6 ar       
      16       16       12 1        
      17        4       12 1        
      18       12        3 2        
      19       18        1 1        
      20       19        1 1        
      21       20        1 1        
      22       21        2 1        
      23       22        2 1        
      24       23        5 1        
      25       24        6 1        
      26       25        7 1        
      27       26       13 1        
      28       27       15 1        
@<TRIPOS>SUBSTRUCTURE
 1 YZ9900 10 RESIDUE 4 A YZ9900 0 ROOT

