#        1GCZ_R01_S0001_C0000_L00005_S0001_C0014_G0010_E0001.mol2
#        Tue Jun  6 09:55:40 2017
#        Descriptor:     23     6    34     9    10    13
#        Energy - RMSD - RMSD MassCentre:     -70.0561    999.9999    999.9999
#        Receptor:       1  Surface Point:     1  Conformer:     0
#        Ligand:         5  Surface Point:     1  Conformer:    14
#        BUDE Formal Charge: 0
#        ATOM Count: 55
#        Heavy ATOM Count: 30
@<TRIPOS>MOLECULE
ZINC61464195_1GCZ_R01_S0001_C0000_L00005_S0001_C0014_G0010_E0001
 55 56 0 0 0
SMALL
USER_CHARGES
@<TRIPOS>ATOM
       1 C1        -1.5667    0.4404   -3.1785 C.3       1 <0>        -0.1456 
       2 C2        -0.4038   -0.2575   -2.4791 C.3       1 <0>        -0.0579 
       3 C3         0.9131    0.3600   -2.9408 C.3       1 <0>        -0.1456 
       4 C4        -0.5415   -0.0885   -0.9850 C.ar      1 <0>        -0.0771 
       5 C5        -0.6707   -1.2369   -0.1951 C.ar      1 <0>        -0.0943 
       6 C6        -0.7001   -1.1229    1.1999 C.ar      1 <0>        -0.0923 
       7 C7        -0.5947    0.1314    1.8127 C.ar      1 <0>        -0.1041 
       8 C8        -0.5180    1.2896    1.0301 C.ar      1 <0>        -0.1315 
       9 C9        -0.5236    1.1698   -0.3648 C.ar      1 <0>        -0.0969 
      10 S1        -0.5660    0.2466    3.5787 S.3       1 <0>        -0.0341 
      11 C10        1.1547    0.1515    4.1639 C.3       1 <0>        -0.1267 
      12 C11        1.1792    0.2497    5.6705 C.2       1 <0>         0.4864 
      13 O1         1.3115   -0.7364    6.3323 O.2       1 <0>        -0.4815 
      14 O2         1.0517    1.4524    6.2701 O.3       1 <0>        -0.3231 
      15 C12        0.8957    2.6041    5.4371 C.3       1 <0>         0.0526 
      16 C13        0.7710    3.8361    6.3012 C.2       1 <0>         0.5250 
      17 O3        -0.2299    4.5463    6.2182 O.2       1 <0>        -0.5082 
      18 N1         1.7425    4.1539    7.1520 N.am      1 <0>        -0.5981 
      19 C14        2.9386    3.3051    7.2512 C.3       1 <0>         0.0731 
      20 C15        1.6195    5.3536    7.9925 C.3       1 <0>         0.1010 
      21 C16        2.0797    5.0341    9.3948 C.2       1 <0>         0.4997 
      22 O4         2.9173    5.7476    9.9443 O.2       1 <0>        -0.5061 
      23 N2         1.5789    3.9813   10.0348 N.am      1 <0>        -0.6702 
      24 C17        2.0099    3.6818   11.3488 C.ar      1 <0>         0.1553 
      25 C18        2.2750    2.3565   11.7137 C.ar      1 <0>        -0.1106 
      26 C19        2.7083    2.0657   13.0128 C.ar      1 <0>        -0.0959 
      27 C20        2.8689    3.0921   13.9479 C.ar      1 <0>        -0.1208 
      28 C21        2.5910    4.4162   13.5879 C.ar      1 <0>        -0.0919 
      29 C22        2.1654    4.7094   12.2868 C.ar      1 <0>        -0.0639 
      30 Cl1        1.8152    6.3533   11.8367 Cl        1 <0>        -0.0632 
      31 H1        -1.5475    1.5020   -2.9408 H         1 <0>         0.0596 
      32 H2        -1.4747    0.3073   -4.2544 H         1 <0>         0.0563 
      33 H3        -2.5056    0.0089   -2.8380 H         1 <0>         0.0575 
      34 H4        -0.4146   -1.3171   -2.7260 H         1 <0>         0.0784 
      35 H5         1.7420   -0.1468   -2.4510 H         1 <0>         0.0596 
      36 H6         0.9284    1.4164   -2.6807 H         1 <0>         0.0574 
      37 H7         1.0062    0.2500   -4.0192 H         1 <0>         0.0563 
      38 H8        -0.7327   -2.2171   -0.6442 H         1 <0>         0.1285 
      39 H9        -0.7936   -1.9790    1.8517 H         1 <0>         0.1293 
      40 H10       -0.4561    2.2519    1.5166 H         1 <0>         0.1227 
      41 H11       -0.4999    2.0752   -0.9530 H         1 <0>         0.1262 
      42 H12        1.5915   -0.7962    3.8557 H         1 <0>         0.1329 
      43 H13        1.7291    0.9717    3.7382 H         1 <0>         0.1329 
      44 H14       -0.0010    2.4951    4.8306 H         1 <0>         0.1063 
      45 H15        1.7633    2.7034    4.7882 H         1 <0>         0.1054 
      46 H16        3.4440    3.2779    6.2881 H         1 <0>         0.0686 
      47 H17        3.6108    3.7134    8.0030 H         1 <0>         0.0794 
      48 H18        2.6446    2.2970    7.5358 H         1 <0>         0.0778 
      49 H19        2.2365    6.1493    7.5802 H         1 <0>         0.1198 
      50 H20        0.5802    5.6746    8.0154 H         1 <0>         0.1233 
      51 H21        0.8909    3.3960    9.5825 H         1 <0>         0.4142 
      52 H22        2.1525    1.5588   10.9959 H         1 <0>         0.1473 
      53 H23        2.9195    1.0434   13.2902 H         1 <0>         0.1337 
      54 H24        3.2069    2.8677   14.9487 H         1 <0>         0.1349 
      55 H25        2.7083    5.2097   14.3111 H         1 <0>         0.1385 
@<TRIPOS>BOND
       1        1        2 1        
       2        1       31 1        
       3        1       32 1        
       4        1       33 1        
       5        2        3 1        
       6        2        4 1        
       7        2       34 1        
       8        3       35 1        
       9        3       36 1        
      10        3       37 1        
      11        4        9 ar       
      12        4        5 ar       
      13        5        6 ar       
      14        5       38 1        
      15        6        7 ar       
      16        6       39 1        
      17        7        8 ar       
      18        7       10 1        
      19        8        9 ar       
      20        8       40 1        
      21        9       41 1        
      22       10       11 1        
      23       11       12 1        
      24       11       42 1        
      25       11       43 1        
      26       12       13 2        
      27       12       14 1        
      28       14       15 1        
      29       15       16 1        
      30       15       44 1        
      31       15       45 1        
      32       16       17 2        
      33       16       18 am       
      34       18       19 1        
      35       18       20 1        
      36       19       46 1        
      37       19       47 1        
      38       19       48 1        
      39       20       21 1        
      40       20       49 1        
      41       20       50 1        
      42       21       22 2        
      43       21       23 am       
      44       23       24 1        
      45       23       51 1        
      46       24       29 ar       
      47       24       25 ar       
      48       25       26 ar       
      49       25       52 1        
      50       26       27 ar       
      51       26       53 1        
      52       27       28 ar       
      53       27       54 1        
      54       28       29 ar       
      55       28       55 1        
      56       29       30 1        

