#        scan_R01_S0084_C0000_L00001_S0001_C0000_G0010_E0001.mol2
#        Mon Jun 19 14:43:14 2017
#        Descriptor:     11     7    20     1     3     4
#        Energy - RMSD - RMSD MassCentre:     -46.2313    999.9999    999.9999
#        Receptor:       1  Surface Point:    84  Conformer:     0
#        Ligand:         1  Surface Point:     1  Conformer:     0
#        BUDE Formal Charge: 0
#        ATOM Count: 27
#        Heavy ATOM Count: 17
@<TRIPOS>MOLECULE
pdb1gcz_ligA.pdb_scan_R01_S0084_C0000_L00001_S0001_C0000_G0010_E0001
27 28 1 0 0
SMALL
GASTEIGER
@<TRIPOS>ATOM
       1 C3        -5.4026   -0.8936    3.7514 C.3       1 YZ9900      0.0513 
       2 C11       -4.1700   -1.2695    2.9798 C.3       1 YZ9900      0.2089 
       3 O1        -4.3246    1.6580    1.2159 O.2       1 YZ9900     -0.2447 
       4 O2        -4.1517   -0.5373    1.6897 O.3       1 YZ9900     -0.4453 
       5 C6         0.3890    3.4865    2.6259 C.ar      1 YZ9900      0.0063 
       6 C5        -1.6574    2.1773    1.9488 C.ar      1 YZ9900      0.0160 
       7 C4         2.0616    1.1868    1.8883 C.ar      1 YZ9900      0.0796 
       8 O3         0.0440    0.0308    1.2702 O.2       1 YZ9900     -0.4208 
       9 C2        -0.1757    2.2933    2.1159 C.ar      1 YZ9900      0.0353 
      10 C1         0.6545    1.1856    1.7621 C.ar      1 YZ9900      0.1519 
      11 C7        -1.2579   -0.1203    1.1816 C.ar      1 YZ9900      0.3521 
      12 C12       -3.6429    0.7130    1.4735 C.2       1 YZ9900      0.3476 
      13 O4         3.9103    2.5310    2.5796 O.3       1 YZ9900     -0.2865 
      14 O5        -1.6756   -1.1411    0.8047 O.2       1 YZ9900     -0.2442 
      15 C10        1.8054    3.5385    2.7751 C.ar      1 YZ9900      0.0422 
      16 C9        -2.1682    0.9713    1.5518 C.ar      1 YZ9900      0.1515 
      17 C8         2.5818    2.4151    2.4109 C.ar      1 YZ9900      0.1988 
      18 H31       -5.4115    0.1832    3.9208 H         1 YZ9900      0.0000 
      19 H32       -6.2878   -1.1790    3.1830 H         1 YZ9900      0.0000 
      20 H33       -5.4034   -1.4123    4.7099 H         1 YZ9900      0.0000 
      21 H112      -4.1745   -2.3426    2.7884 H         1 YZ9900      0.0000 
      22 H113      -3.2845   -1.0074    3.5590 H         1 YZ9900      0.0000 
      23 H6        -0.2320    4.3287    2.8928 H         1 YZ9900      0.0000 
      24 H5        -2.3054    3.0207    2.1359 H         1 YZ9900      0.0000 
      25 H4         2.6829    0.3459    1.6178 H         1 YZ9900      0.0000 
      26 HO4        4.1165    2.5196    3.5171 H         1 YZ9900      0.0000 
      27 H10        2.2808    4.4275    3.1628 H         1 YZ9900      0.0000 
@<TRIPOS>BOND
       1       13       17 1        
       2        7       17 ar       
       3        7       10 ar       
       4        8       10 ar       
       5        8       11 ar       
       6       14       11 2        
       7       17       15 ar       
       8       10        9 ar       
       9       11       16 ar       
      10        2        4 1        
      11        2        1 1        
      12       15        5 ar       
      13        9        5 ar       
      14        9        6 ar       
      15       16        6 ar       
      16       16       12 1        
      17        4       12 1        
      18       12        3 2        
      19       18        1 1        
      20       19        1 1        
      21       20        1 1        
      22       21        2 1        
      23       22        2 1        
      24       23        5 1        
      25       24        6 1        
      26       25        7 1        
      27       26       13 1        
      28       27       15 1        
@<TRIPOS>SUBSTRUCTURE
 1 YZ9900 10 RESIDUE 4 A YZ9900 0 ROOT

