#        scan_R01_S0084_C0000_L00001_S0001_C0003_G0010_E0001.mol2
#        Mon Jun 19 14:15:10 2017
#        Descriptor:     22    17    21     2     2     4
#        Energy - RMSD - RMSD MassCentre:     -45.8597    999.9999    999.9999
#        Receptor:       1  Surface Point:    84  Conformer:     0
#        Ligand:         1  Surface Point:     1  Conformer:     3
#        BUDE Formal Charge: 0
#        ATOM Count: 27
#        Heavy ATOM Count: 17
@<TRIPOS>MOLECULE
pdb1gcz_ligA.pdb_scan_R01_S0084_C0000_L00001_S0001_C0003_G0010_E0001
27 28 1 0 0
SMALL
GASTEIGER
@<TRIPOS>ATOM
       1 C3        -4.2425   -5.5660    2.2056 C.3       1 YZ9900      0.0513 
       2 C11       -4.9211   -4.2126    2.3968 C.3       1 YZ9900      0.2089 
       3 O1        -2.6700   -3.8793    3.7133 O.2       1 YZ9900     -0.2447 
       4 O2        -3.9919   -3.1678    2.0970 O.3       1 YZ9900     -0.4453 
       5 C6         1.4055   -0.7359    3.7360 C.ar      1 YZ9900      0.0063 
       6 C5        -0.7501   -1.9266    3.2854 C.ar      1 YZ9900      0.0160 
       7 C4         0.8860    1.0717    1.6808 C.ar      1 YZ9900      0.0796 
       8 O3        -1.2006   -0.0359    1.2028 O.2       1 YZ9900     -0.4208 
       9 C2         0.2260   -0.8532    2.9931 C.ar      1 YZ9900      0.0353 
      10 C1        -0.0351    0.0550    1.9603 C.ar      1 YZ9900      0.1519 
      11 C7        -2.1163   -1.0479    1.4818 C.ar      1 YZ9900      0.3521 
      12 C12       -2.8660   -3.0899    2.8379 C.2       1 YZ9900      0.3476 
      13 O4         2.9387    2.2050    2.1104 O.3       1 YZ9900     -0.2865 
      14 O5        -3.1305   -1.1097    0.8065 O.2       1 YZ9900     -0.2442 
      15 C10        2.3231    0.2827    3.4523 C.ar      1 YZ9900      0.0422 
      16 C9        -1.8740   -2.0259    2.5657 C.ar      1 YZ9900      0.1515 
      17 C8         2.0679    1.1941    2.4209 C.ar      1 YZ9900      0.1988 
      18 H31       -3.3940   -5.6443    2.8822 H         1 YZ9900      0.0000 
      19 H32       -4.9534   -6.3610    2.4207 H         1 YZ9900      0.0000 
      20 H33       -3.8972   -5.6558    1.1778 H         1 YZ9900      0.0000 
      21 H112      -5.2544   -4.1158    3.4279 H         1 YZ9900      0.0000 
      22 H113      -5.7773   -4.1380    1.7297 H         1 YZ9900      0.0000 
      23 H6         1.6137   -1.4330    4.5343 H         1 YZ9900      0.0000 
      24 H5        -0.5395   -2.6223    4.0842 H         1 YZ9900      0.0000 
      25 H4         0.6801    1.7701    0.8830 H         1 YZ9900      0.0000 
      26 HO4        2.6117    2.7274    1.3612 H         1 YZ9900      0.0000 
      27 H10        3.2261    0.3513    4.0408 H         1 YZ9900      0.0000 
@<TRIPOS>BOND
       1       13       17 1        
       2        7       17 ar       
       3        7       10 ar       
       4        8       10 ar       
       5        8       11 ar       
       6       14       11 2        
       7       17       15 ar       
       8       10        9 ar       
       9       11       16 ar       
      10        2        4 1        
      11        2        1 1        
      12       15        5 ar       
      13        9        5 ar       
      14        9        6 ar       
      15       16        6 ar       
      16       16       12 1        
      17        4       12 1        
      18       12        3 2        
      19       18        1 1        
      20       19        1 1        
      21       20        1 1        
      22       21        2 1        
      23       22        2 1        
      24       23        5 1        
      25       24        6 1        
      26       25        7 1        
      27       26       13 1        
      28       27       15 1        
@<TRIPOS>SUBSTRUCTURE
 1 YZ9900 10 RESIDUE 4 A YZ9900 0 ROOT

