#        scan_R01_S0085_C0000_L00001_S0001_C0000_G0010_E0001.mol2
#        Mon Jun 19 14:43:16 2017
#        Descriptor:      9     7     3     3     2     4
#        Energy - RMSD - RMSD MassCentre:     -47.5497    999.9999    999.9999
#        Receptor:       1  Surface Point:    85  Conformer:     0
#        Ligand:         1  Surface Point:     1  Conformer:     0
#        BUDE Formal Charge: 0
#        ATOM Count: 27
#        Heavy ATOM Count: 17
@<TRIPOS>MOLECULE
pdb1gcz_ligA.pdb_scan_R01_S0085_C0000_L00001_S0001_C0000_G0010_E0001
27 28 1 0 0
SMALL
GASTEIGER
@<TRIPOS>ATOM
       1 C3         5.5665    1.3942    3.7997 C.3       1 YZ9900      0.0513 
       2 C11        4.4406    1.8629    2.9230 C.3       1 YZ9900      0.2089 
       3 O1         4.2117   -1.2323    1.4830 O.2       1 YZ9900     -0.2447 
       4 O2         4.3625    1.0030    1.7166 O.3       1 YZ9900     -0.4453 
       5 C6        -0.7834   -2.1650    2.7975 C.ar      1 YZ9900      0.0063 
       6 C5         1.4680   -1.2610    2.1090 C.ar      1 YZ9900      0.0160 
       7 C4        -2.0460    0.2634    1.7301 C.ar      1 YZ9900      0.0796 
       8 O3         0.1506    1.0278    1.1144 O.2       1 YZ9900     -0.4208 
       9 C2        -0.0194   -1.1340    2.2007 C.ar      1 YZ9900      0.0353 
      10 C1        -0.6518    0.0395    1.6866 C.ar      1 YZ9900      0.1519 
      11 C7         1.4627    0.9711    1.0867 C.ar      1 YZ9900      0.3521 
      12 C12        3.6750   -0.1730    1.6014 C.2       1 YZ9900      0.3476 
      13 O4        -4.1084   -0.7031    2.4477 O.3       1 YZ9900     -0.2865 
      14 O5         2.0494    1.8695    0.6313 O.2       1 YZ9900     -0.2442 
      15 C10       -2.1957   -1.9870    2.8685 C.ar      1 YZ9900      0.0422 
      16 C9         2.1761   -0.1968    1.6200 C.ar      1 YZ9900      0.1515 
      17 C8        -2.7722   -0.8073    2.3456 C.ar      1 YZ9900      0.1988 
      18 H31        5.4008    0.3538    4.0797 H         1 YZ9900      0.0000 
      19 H32        6.5082    1.4787    3.2574 H         1 YZ9900      0.0000 
      20 H33        5.6079    2.0102    4.6980 H         1 YZ9900      0.0000 
      21 H112       4.6198    2.8952    2.6224 H         1 YZ9900      0.0000 
      22 H113       3.5018    1.8025    3.4736 H         1 YZ9900      0.0000 
      23 H6        -0.3126   -3.0559    3.1856 H         1 YZ9900      0.0000 
      24 H5         1.9687   -2.1659    2.4197 H         1 YZ9900      0.0000 
      25 H4        -2.5173    1.1527    1.3385 H         1 YZ9900      0.0000 
      26 HO4       -4.3493   -0.5569    3.3654 H         1 YZ9900      0.0000 
      27 H10       -2.8192   -2.7460    3.3176 H         1 YZ9900      0.0000 
@<TRIPOS>BOND
       1       13       17 1        
       2        7       17 ar       
       3        7       10 ar       
       4        8       10 ar       
       5        8       11 ar       
       6       14       11 2        
       7       17       15 ar       
       8       10        9 ar       
       9       11       16 ar       
      10        2        4 1        
      11        2        1 1        
      12       15        5 ar       
      13        9        5 ar       
      14        9        6 ar       
      15       16        6 ar       
      16       16       12 1        
      17        4       12 1        
      18       12        3 2        
      19       18        1 1        
      20       19        1 1        
      21       20        1 1        
      22       21        2 1        
      23       22        2 1        
      24       23        5 1        
      25       24        6 1        
      26       25        7 1        
      27       26       13 1        
      28       27       15 1        
@<TRIPOS>SUBSTRUCTURE
 1 YZ9900 10 RESIDUE 4 A YZ9900 0 ROOT

