#        1GCZ_R01_S0001_C0000_L00005_S0001_C0014_G0010_E0001.mol2
#        Tue Jun  6 14:06:01 2017
#        Descriptor:     22     6    28    10     8    12
#        Energy - RMSD - RMSD MassCentre:     -49.8746    999.9999    999.9999
#        Receptor:       1  Surface Point:     1  Conformer:     0
#        Ligand:         5  Surface Point:     1  Conformer:    14
#        BUDE Formal Charge: 0
#        ATOM Count: 55
#        Heavy ATOM Count: 30
@<TRIPOS>MOLECULE
ZINC61464195_1GCZ_R01_S0001_C0000_L00005_S0001_C0014_G0010_E0001
 55 56 0 0 0
SMALL
USER_CHARGES
@<TRIPOS>ATOM
       1 C1        -1.0868    1.7539   -3.9563 C.3       1 <0>        -0.1456 
       2 C2        -1.2519    0.4229   -3.2284 C.3       1 <0>        -0.0579 
       3 C3        -0.2412   -0.5834   -3.7711 C.3       1 <0>        -0.1456 
       4 C4        -1.0156    0.6255   -1.7510 C.ar      1 <0>        -0.0771 
       5 C5        -2.0595    0.3353   -0.8647 C.ar      1 <0>        -0.0943 
       6 C6        -1.8435    0.4161    0.5161 C.ar      1 <0>        -0.0923 
       7 C7        -0.5884    0.7790    1.0189 C.ar      1 <0>        -0.1041 
       8 C8         0.4462    1.1218    0.1404 C.ar      1 <0>        -0.1315 
       9 C9         0.2121    1.0715   -1.2390 C.ar      1 <0>        -0.0969 
      10 S1        -0.3182    0.8093    2.7679 S.3       1 <0>        -0.0341 
      11 C10        0.2685   -0.8232    3.3184 C.3       1 <0>        -0.1267 
      12 C11        0.4991   -0.7973    4.8105 C.2       1 <0>         0.4864 
      13 O1        -0.3105   -1.2733    5.5493 O.2       1 <0>        -0.4815 
      14 O2         1.6207   -0.2362    5.3100 O.3       1 <0>        -0.3231 
      15 C12        2.5606    0.3205    4.3872 C.3       1 <0>         0.0526 
      16 C13        3.7333    0.8919    5.1477 C.2       1 <0>         0.5250 
      17 O3         4.0219    2.0817    5.0290 O.2       1 <0>        -0.5082 
      18 N1         4.4543    0.1096    5.9458 N.am      1 <0>        -0.5981 
      19 C14        4.1093   -1.3123    6.0877 C.3       1 <0>         0.0731 
      20 C15        5.5957    0.6675    6.6854 C.3       1 <0>         0.1010 
      21 C16        5.5876    0.1347    8.0983 C.2       1 <0>         0.4997 
      22 O4         6.6011   -0.3815    8.5662 O.2       1 <0>        -0.5061 
      23 N2         4.4845    0.2241    8.8359 N.am      1 <0>        -0.6702 
      24 C17        4.4769   -0.2750   10.1599 C.ar      1 <0>         0.1553 
      25 C18        3.3751   -1.0004   10.6283 C.ar      1 <0>        -0.1106 
      26 C19        3.3750   -1.4986   11.9367 C.ar      1 <0>        -0.0959 
      27 C20        4.4666   -1.2671   12.7784 C.ar      1 <0>        -0.1208 
      28 C21        5.5632   -0.5301   12.3153 C.ar      1 <0>        -0.0919 
      29 C22        5.5680   -0.0383   11.0046 C.ar      1 <0>        -0.0639 
      30 Cl1        6.9273    0.8816   10.4266 Cl        1 <0>        -0.0632 
      31 H1        -0.0743    2.1239   -3.8090 H         1 <0>         0.0596 
      32 H2        -1.2702    1.6106   -5.0192 H         1 <0>         0.0563 
      33 H3        -1.7984    2.4747   -3.5589 H         1 <0>         0.0575 
      34 H4        -2.2603    0.0458   -3.3853 H         1 <0>         0.0784 
      35 H5        -0.3683   -1.5355   -3.2601 H         1 <0>         0.0596 
      36 H6         0.7670   -0.2114   -3.6009 H         1 <0>         0.0574 
      37 H7        -0.4030   -0.7193   -4.8384 H         1 <0>         0.0563 
      38 H8        -3.0304    0.0329   -1.2285 H         1 <0>         0.1285 
      39 H9        -2.6153    0.1976    1.2394 H         1 <0>         0.1293 
      40 H10        1.4036    1.4181    0.5430 H         1 <0>         0.1227 
      41 H11        1.0099    1.3734   -1.9014 H         1 <0>         0.1262 
      42 H12       -0.4790   -1.5771    3.0806 H         1 <0>         0.1329 
      43 H13        1.2011   -1.0638    2.8121 H         1 <0>         0.1329 
      44 H14        2.0815    1.1109    3.8132 H         1 <0>         0.1063 
      45 H15        2.9112   -0.4573    3.7120 H         1 <0>         0.1054 
      46 H16        4.1839   -1.8013    5.1186 H         1 <0>         0.0686 
      47 H17        4.7971   -1.7836    6.7865 H         1 <0>         0.0794 
      48 H18        3.0919   -1.4023    6.4626 H         1 <0>         0.0778 
      49 H19        6.5220    0.3783    6.1934 H         1 <0>         0.1198 
      50 H20        5.5184    1.7525    6.7058 H         1 <0>         0.1233 
      51 H21        3.6528    0.6484    8.4506 H         1 <0>         0.4142 
      52 H22        2.5283   -1.1824    9.9830 H         1 <0>         0.1473 
      53 H23        2.5271   -2.0646   12.2938 H         1 <0>         0.1337 
      54 H24        4.4678   -1.6549   13.7863 H         1 <0>         0.1349 
      55 H25        6.4047   -0.3448   12.9665 H         1 <0>         0.1385 
@<TRIPOS>BOND
       1        1        2 1        
       2        1       31 1        
       3        1       32 1        
       4        1       33 1        
       5        2        3 1        
       6        2        4 1        
       7        2       34 1        
       8        3       35 1        
       9        3       36 1        
      10        3       37 1        
      11        4        9 ar       
      12        4        5 ar       
      13        5        6 ar       
      14        5       38 1        
      15        6        7 ar       
      16        6       39 1        
      17        7        8 ar       
      18        7       10 1        
      19        8        9 ar       
      20        8       40 1        
      21        9       41 1        
      22       10       11 1        
      23       11       12 1        
      24       11       42 1        
      25       11       43 1        
      26       12       13 2        
      27       12       14 1        
      28       14       15 1        
      29       15       16 1        
      30       15       44 1        
      31       15       45 1        
      32       16       17 2        
      33       16       18 am       
      34       18       19 1        
      35       18       20 1        
      36       19       46 1        
      37       19       47 1        
      38       19       48 1        
      39       20       21 1        
      40       20       49 1        
      41       20       50 1        
      42       21       22 2        
      43       21       23 am       
      44       23       24 1        
      45       23       51 1        
      46       24       29 ar       
      47       24       25 ar       
      48       25       26 ar       
      49       25       52 1        
      50       26       27 ar       
      51       26       53 1        
      52       27       28 ar       
      53       27       54 1        
      54       28       29 ar       
      55       28       55 1        
      56       29       30 1        

