#        scan_R01_S0085_C0000_L00001_S0001_C0000_G0010_E0001.mol2
#        Mon Jun 19 14:15:10 2017
#        Descriptor:     12     4    31     3     2     4
#        Energy - RMSD - RMSD MassCentre:     -47.9486    999.9999    999.9999
#        Receptor:       1  Surface Point:    85  Conformer:     0
#        Ligand:         1  Surface Point:     1  Conformer:     0
#        BUDE Formal Charge: 0
#        ATOM Count: 27
#        Heavy ATOM Count: 17
@<TRIPOS>MOLECULE
pdb1gcz_ligA.pdb_scan_R01_S0085_C0000_L00001_S0001_C0000_G0010_E0001
27 28 1 0 0
SMALL
GASTEIGER
@<TRIPOS>ATOM
       1 C3         4.9071   -3.1843    1.2061 C.3       1 YZ9900      0.0513 
       2 C11        4.5257   -1.7327    1.1476 C.3       1 YZ9900      0.2089 
       3 O1         1.5427   -2.5278   -0.3272 O.2       1 YZ9900     -0.2447 
       4 O2         3.5207   -1.5284    0.0757 O.3       1 YZ9900     -0.4453 
       5 C6        -1.5534   -0.4139    3.3462 C.ar      1 YZ9900      0.0063 
       6 C5         0.2224   -1.0534    1.6736 C.ar      1 YZ9900      0.0160 
       7 C4        -0.4234    2.2954    3.4579 C.ar      1 YZ9900      0.0796 
       8 O3         1.2236    1.5785    1.8572 O.2       1 YZ9900     -0.4208 
       9 C2        -0.4273   -0.0486    2.5709 C.ar      1 YZ9900      0.0353 
      10 C1         0.1076    1.2745    2.6384 C.ar      1 YZ9900      0.1519 
      11 C7         1.8536    0.6949    1.1169 C.ar      1 YZ9900      0.3521 
      12 C12        2.1653   -1.6564    0.1991 C.2       1 YZ9900      0.3476 
      13 O4        -2.1465    2.7609    5.0444 O.3       1 YZ9900     -0.2865 
      14 O5         2.8073    1.0322    0.5379 O.2       1 YZ9900     -0.2442 
      15 C10       -2.1261    0.5797    4.1924 C.ar      1 YZ9900      0.0422 
      16 C9         1.3695   -0.6886    1.0224 C.ar      1 YZ9900      0.1515 
      17 C8        -1.5588    1.8738    4.2231 C.ar      1 YZ9900      0.1988 
      18 H31        4.0181   -3.7868    1.3932 H         1 YZ9900      0.0000 
      19 H32        5.3536   -3.4809    0.2570 H         1 YZ9900      0.0000 
      20 H33        5.6266   -3.3387    2.0101 H         1 YZ9900      0.0000 
      21 H112       5.4107   -1.1329    0.9350 H         1 YZ9900      0.0000 
      22 H113       4.1025   -1.4292    2.1052 H         1 YZ9900      0.0000 
      23 H6        -1.9648   -1.4112    3.2982 H         1 YZ9900      0.0000 
      24 H5        -0.2013   -2.0381    1.5433 H         1 YZ9900      0.0000 
      25 H4        -0.0143    3.2939    3.5030 H         1 YZ9900      0.0000 
      26 HO4       -1.9587    2.5267    5.9562 H         1 YZ9900      0.0000 
      27 H10       -2.9849    0.3460    4.8042 H         1 YZ9900      0.0000 
@<TRIPOS>BOND
       1       13       17 1        
       2        7       17 ar       
       3        7       10 ar       
       4        8       10 ar       
       5        8       11 ar       
       6       14       11 2        
       7       17       15 ar       
       8       10        9 ar       
       9       11       16 ar       
      10        2        4 1        
      11        2        1 1        
      12       15        5 ar       
      13        9        5 ar       
      14        9        6 ar       
      15       16        6 ar       
      16       16       12 1        
      17        4       12 1        
      18       12        3 2        
      19       18        1 1        
      20       19        1 1        
      21       20        1 1        
      22       21        2 1        
      23       22        2 1        
      24       23        5 1        
      25       24        6 1        
      26       25        7 1        
      27       26       13 1        
      28       27       15 1        
@<TRIPOS>SUBSTRUCTURE
 1 YZ9900 10 RESIDUE 4 A YZ9900 0 ROOT

