#        scan_R01_S0085_C0000_L00001_S0001_C0002_G0010_E0001.mol2
#        Mon Jun 19 14:15:11 2017
#        Descriptor:      7    14    33     3     3     5
#        Energy - RMSD - RMSD MassCentre:     -47.9705    999.9999    999.9999
#        Receptor:       1  Surface Point:    85  Conformer:     0
#        Ligand:         1  Surface Point:     1  Conformer:     2
#        BUDE Formal Charge: 0
#        ATOM Count: 27
#        Heavy ATOM Count: 17
@<TRIPOS>MOLECULE
pdb1gcz_ligA.pdb_scan_R01_S0085_C0000_L00001_S0001_C0002_G0010_E0001
27 28 1 0 0
SMALL
GASTEIGER
@<TRIPOS>ATOM
       1 C3         5.2515   -2.3893   -2.0082 C.3       1 YZ9900      0.0513 
       2 C11        3.8355   -2.6888   -1.5249 C.3       1 YZ9900      0.2089 
       3 O1         1.4916   -2.7089   -0.3340 O.2       1 YZ9900     -0.2447 
       4 O2         3.4559   -1.7259   -0.5381 O.3       1 YZ9900     -0.4453 
       5 C6        -1.1058   -0.0262    3.2083 C.ar      1 YZ9900      0.0063 
       6 C5         0.5739   -0.9399    1.5923 C.ar      1 YZ9900      0.0160 
       7 C4         0.6562    1.9957    3.9621 C.ar      1 YZ9900      0.0796 
       8 O3         2.3113    1.1594    2.4225 O.2       1 YZ9900     -0.4208 
       9 C2         0.1593    0.0457    2.6156 C.ar      1 YZ9900      0.0353 
      10 C1         1.0448    1.0616    2.9944 C.ar      1 YZ9900      0.1519 
      11 C7         2.6968    0.2294    1.4597 C.ar      1 YZ9900      0.3521 
      12 C12        2.2262   -1.8309    0.0091 C.2       1 YZ9900      0.3476 
      13 O4        -0.9436    2.8653    5.5007 O.3       1 YZ9900     -0.2865 
      14 O5         3.8100    0.3330    0.9714 O.2       1 YZ9900     -0.2442 
      15 C10       -1.4892    0.9105    4.1755 C.ar      1 YZ9900      0.0422 
      16 C9         1.7875   -0.8581    1.0344 C.ar      1 YZ9900      0.1515 
      17 C8        -0.6084    1.9289    4.5586 C.ar      1 YZ9900      0.1988 
      18 H31        5.9415   -2.4536   -1.1693 H         1 YZ9900      0.0000 
      19 H32        5.5353   -3.1139   -2.7685 H         1 YZ9900      0.0000 
      20 H33        5.2855   -1.3873   -2.4306 H         1 YZ9900      0.0000 
      21 H112       3.8033   -3.6853   -1.0894 H         1 YZ9900      0.0000 
      22 H113       3.1462   -2.6371   -2.3650 H         1 YZ9900      0.0000 
      23 H6        -1.7942   -0.8073    2.9210 H         1 YZ9900      0.0000 
      24 H5        -0.1165   -1.7199    1.3069 H         1 YZ9900      0.0000 
      25 H4         1.3428    2.7778    4.2511 H         1 YZ9900      0.0000 
      26 HO4       -0.2103    3.4815    5.6542 H         1 YZ9900      0.0000 
      27 H10       -2.4715    0.8328    4.6176 H         1 YZ9900      0.0000 
@<TRIPOS>BOND
       1       13       17 1        
       2        7       17 ar       
       3        7       10 ar       
       4        8       10 ar       
       5        8       11 ar       
       6       14       11 2        
       7       17       15 ar       
       8       10        9 ar       
       9       11       16 ar       
      10        2        4 1        
      11        2        1 1        
      12       15        5 ar       
      13        9        5 ar       
      14        9        6 ar       
      15       16        6 ar       
      16       16       12 1        
      17        4       12 1        
      18       12        3 2        
      19       18        1 1        
      20       19        1 1        
      21       20        1 1        
      22       21        2 1        
      23       22        2 1        
      24       23        5 1        
      25       24        6 1        
      26       25        7 1        
      27       26       13 1        
      28       27       15 1        
@<TRIPOS>SUBSTRUCTURE
 1 YZ9900 10 RESIDUE 4 A YZ9900 0 ROOT

