#        scan_R01_S0085_C0000_L00001_S0001_C0003_G0010_E0001.mol2
#        Mon Jun 19 14:43:17 2017
#        Descriptor:     18    17    36     2     3     4
#        Energy - RMSD - RMSD MassCentre:     -48.7927    999.9999    999.9999
#        Receptor:       1  Surface Point:    85  Conformer:     0
#        Ligand:         1  Surface Point:     1  Conformer:     3
#        BUDE Formal Charge: 0
#        ATOM Count: 27
#        Heavy ATOM Count: 17
@<TRIPOS>MOLECULE
pdb1gcz_ligA.pdb_scan_R01_S0085_C0000_L00001_S0001_C0003_G0010_E0001
27 28 1 0 0
SMALL
GASTEIGER
@<TRIPOS>ATOM
       1 C3         6.7046    2.2167    3.6091 C.3       1 YZ9900      0.0513 
       2 C11        6.4399    0.9478    2.8038 C.3       1 YZ9900      0.2089 
       3 O1         4.3793    0.9918    4.4360 O.2       1 YZ9900     -0.2447 
       4 O2         5.0850    0.9485    2.3465 O.3       1 YZ9900     -0.4453 
       5 C6        -0.7631    1.0224    4.2244 C.ar      1 YZ9900      0.0063 
       6 C5         1.6945    0.9971    3.7479 C.ar      1 YZ9900      0.0160 
       7 C4        -1.3353    0.9759    1.4983 C.ar      1 YZ9900      0.0796 
       8 O3         1.0186    0.9506    0.9810 O.2       1 YZ9900     -0.4208 
       9 C2         0.2846    0.9982    3.2978 C.ar      1 YZ9900      0.0353 
      10 C1        -0.0029    0.9749    1.9279 C.ar      1 YZ9900      0.1519 
      11 C7         2.3440    0.9496    1.4097 C.ar      1 YZ9900      0.3521 
      12 C12        4.1038    0.9722    3.2734 C.2       1 YZ9900      0.3476 
      13 O4        -3.6754    1.0000    1.9526 O.3       1 YZ9900     -0.2865 
      14 O5         3.2232    0.9281    0.5642 O.2       1 YZ9900     -0.2442 
      15 C10       -2.0938    1.0233    3.7893 C.ar      1 YZ9900      0.0422 
      16 C9         2.6859    0.9739    2.8494 C.ar      1 YZ9900      0.1515 
      17 C8        -2.3879    1.0000    2.4208 C.ar      1 YZ9900      0.1988 
      18 H31        6.0417    2.2430    4.4715 H         1 YZ9900      0.0000 
      19 H32        7.7392    2.2226    3.9458 H         1 YZ9900      0.0000 
      20 H33        6.5213    3.0875    2.9832 H         1 YZ9900      0.0000 
      21 H112       6.6092    0.0764    3.4328 H         1 YZ9900      0.0000 
      22 H113       7.1108    0.9141    1.9480 H         1 YZ9900      0.0000 
      23 H6        -0.5490    1.0405    5.2828 H         1 YZ9900      0.0000 
      24 H5         1.9058    1.0152    4.8069 H         1 YZ9900      0.0000 
      25 H4        -1.5521    0.9578    0.4403 H         1 YZ9900      0.0000 
      26 HO4       -3.6922    1.0000    0.9827 H         1 YZ9900      0.0000 
      27 H10       -2.8841    1.0422    4.5251 H         1 YZ9900      0.0000 
@<TRIPOS>BOND
       1       13       17 1        
       2        7       17 ar       
       3        7       10 ar       
       4        8       10 ar       
       5        8       11 ar       
       6       14       11 2        
       7       17       15 ar       
       8       10        9 ar       
       9       11       16 ar       
      10        2        4 1        
      11        2        1 1        
      12       15        5 ar       
      13        9        5 ar       
      14        9        6 ar       
      15       16        6 ar       
      16       16       12 1        
      17        4       12 1        
      18       12        3 2        
      19       18        1 1        
      20       19        1 1        
      21       20        1 1        
      22       21        2 1        
      23       22        2 1        
      24       23        5 1        
      25       24        6 1        
      26       25        7 1        
      27       26       13 1        
      28       27       15 1        
@<TRIPOS>SUBSTRUCTURE
 1 YZ9900 10 RESIDUE 4 A YZ9900 0 ROOT

