#        scan_R01_S0086_C0000_L00001_S0001_C0000_G0010_E0001.mol2
#        Mon Jun 19 14:15:12 2017
#        Descriptor:      4     1     5     2     1     4
#        Energy - RMSD - RMSD MassCentre:     -47.3594    999.9999    999.9999
#        Receptor:       1  Surface Point:    86  Conformer:     0
#        Ligand:         1  Surface Point:     1  Conformer:     0
#        BUDE Formal Charge: 0
#        ATOM Count: 27
#        Heavy ATOM Count: 17
@<TRIPOS>MOLECULE
pdb1gcz_ligA.pdb_scan_R01_S0086_C0000_L00001_S0001_C0000_G0010_E0001
27 28 1 0 0
SMALL
GASTEIGER
@<TRIPOS>ATOM
       1 C3         4.9888   -0.6062    1.0041 C.3       1 YZ9900      0.0513 
       2 C11        3.6518   -0.7586    0.3370 C.3       1 YZ9900      0.2089 
       3 O1         2.7053   -3.0845    2.6608 O.2       1 YZ9900     -0.2447 
       4 O2         3.0774   -2.0833    0.6776 O.3       1 YZ9900     -0.4453 
       5 C6        -1.4997   -0.5035    4.4511 C.ar      1 YZ9900      0.0063 
       6 C5         0.3917   -1.5626    3.1623 C.ar      1 YZ9900      0.0160 
       7 C4        -2.9059   -0.0153    1.9185 C.ar      1 YZ9900      0.0796 
       8 O3        -1.0475   -1.0463    0.7905 O.2       1 YZ9900     -0.4208 
       9 C2        -0.9447   -0.8929    3.2089 C.ar      1 YZ9900      0.0353 
      10 C1        -1.6443   -0.6474    1.9875 C.ar      1 YZ9900      0.1519 
      11 C7         0.1548   -1.5708    0.7188 C.ar      1 YZ9900      0.3521 
      12 C12        2.3209   -2.3814    1.7765 C.2       1 YZ9900      0.3476 
      13 O4        -4.6154    0.9755    3.2596 O.3       1 YZ9900     -0.2865 
      14 O5         0.5889   -1.8263   -0.3324 O.2       1 YZ9900     -0.2442 
      15 C10       -2.7708    0.1409    4.4364 C.ar      1 YZ9900      0.0422 
      16 C9         0.9368   -1.8274    1.9353 C.ar      1 YZ9900      0.1515 
      17 C8        -3.4214    0.3609    3.2011 C.ar      1 YZ9900      0.1988 
      18 H31        4.8708   -0.7077    2.0830 H         1 YZ9900      0.0000 
      19 H32        5.6668   -1.3776    0.6389 H         1 YZ9900      0.0000 
      20 H33        5.3995    0.3769    0.7742 H         1 YZ9900      0.0000 
      21 H112       3.7742   -0.6827   -0.7435 H         1 YZ9900      0.0000 
      22 H113       2.9812    0.0280    0.6829 H         1 YZ9900      0.0000 
      23 H6        -0.9780   -0.6883    5.3784 H         1 YZ9900      0.0000 
      24 H5         0.9115   -1.8294    4.0705 H         1 YZ9900      0.0000 
      25 H4        -3.4294    0.1661    0.9914 H         1 YZ9900      0.0000 
      26 HO4       -4.4899    1.8978    3.4942 H         1 YZ9900      0.0000 
      27 H10       -3.2323    0.4581    5.3599 H         1 YZ9900      0.0000 
@<TRIPOS>BOND
       1       13       17 1        
       2        7       17 ar       
       3        7       10 ar       
       4        8       10 ar       
       5        8       11 ar       
       6       14       11 2        
       7       17       15 ar       
       8       10        9 ar       
       9       11       16 ar       
      10        2        4 1        
      11        2        1 1        
      12       15        5 ar       
      13        9        5 ar       
      14        9        6 ar       
      15       16        6 ar       
      16       16       12 1        
      17        4       12 1        
      18       12        3 2        
      19       18        1 1        
      20       19        1 1        
      21       20        1 1        
      22       21        2 1        
      23       22        2 1        
      24       23        5 1        
      25       24        6 1        
      26       25        7 1        
      27       26       13 1        
      28       27       15 1        
@<TRIPOS>SUBSTRUCTURE
 1 YZ9900 10 RESIDUE 4 A YZ9900 0 ROOT

