#        scan_R01_S0086_C0000_L00001_S0001_C0003_G0010_E0001.mol2
#        Mon Jun 19 14:43:18 2017
#        Descriptor:     14    17    30     2     2     4
#        Energy - RMSD - RMSD MassCentre:     -51.0190    999.9999    999.9999
#        Receptor:       1  Surface Point:    86  Conformer:     0
#        Ligand:         1  Surface Point:     1  Conformer:     3
#        BUDE Formal Charge: 0
#        ATOM Count: 27
#        Heavy ATOM Count: 17
@<TRIPOS>MOLECULE
pdb1gcz_ligA.pdb_scan_R01_S0086_C0000_L00001_S0001_C0003_G0010_E0001
27 28 1 0 0
SMALL
GASTEIGER
@<TRIPOS>ATOM
       1 C3         2.6413   -6.2447    3.7460 C.3       1 YZ9900      0.0513 
       2 C11        2.0804   -6.1387    2.3307 C.3       1 YZ9900      0.2089 
       3 O1         0.3608   -4.6993    3.7029 O.2       1 YZ9900     -0.2447 
       4 O2         1.7991   -4.7689    2.0318 O.3       1 YZ9900     -0.4453 
       5 C6        -1.5529    0.0783    3.7644 C.ar      1 YZ9900      0.0063 
       6 C5        -0.3178   -2.0452    3.2817 C.ar      1 YZ9900      0.0160 
       7 C4        -0.2661    1.3573    1.6503 C.ar      1 YZ9900      0.0796 
       8 O3         0.9507   -0.6597    1.1402 O.2       1 YZ9900     -0.4208 
       9 C2        -0.6249   -0.6269    2.9908 C.ar      1 YZ9900      0.0353 
      10 C1         0.0218    0.0158    1.9285 C.ar      1 YZ9900      0.1519 
      11 C7         1.2363   -1.9945    1.4180 C.ar      1 YZ9900      0.3521 
      12 C12        0.8971   -4.1248    2.8027 C.2       1 YZ9900      0.3476 
      13 O4        -1.4425    3.3790    2.1104 O.3       1 YZ9900     -0.2865 
      14 O5         2.0528   -2.5675    0.7155 O.2       1 YZ9900     -0.2442 
      15 C10       -1.8371    1.4197    3.4818 C.ar      1 YZ9900      0.0422 
      16 C9         0.5724   -2.7064    2.5327 C.ar      1 YZ9900      0.1515 
      17 C8        -1.1938    2.0680    2.4209 C.ar      1 YZ9900      0.1988 
      18 H31        1.9051   -5.8732    4.4559 H         1 YZ9900      0.0000 
      19 H32        2.8679   -7.2853    3.9686 H         1 YZ9900      0.0000 
      20 H33        3.5500   -5.6511    3.8207 H         1 YZ9900      0.0000 
      21 H112       1.1640   -6.7206    2.2586 H         1 YZ9900      0.0000 
      22 H113       2.8107   -6.5215    1.6210 H         1 YZ9900      0.0000 
      23 H6        -2.0557   -0.4110    4.5855 H         1 YZ9900      0.0000 
      24 H5        -0.8221   -2.5320    4.1034 H         1 YZ9900      0.0000 
      25 H4         0.2353    1.8488    0.8296 H         1 YZ9900      0.0000 
      26 HO4       -0.8981    3.6678    1.3612 H         1 YZ9900      0.0000 
      27 H10       -2.5575    1.9414    4.0942 H         1 YZ9900      0.0000 
@<TRIPOS>BOND
       1       13       17 1        
       2        7       17 ar       
       3        7       10 ar       
       4        8       10 ar       
       5        8       11 ar       
       6       14       11 2        
       7       17       15 ar       
       8       10        9 ar       
       9       11       16 ar       
      10        2        4 1        
      11        2        1 1        
      12       15        5 ar       
      13        9        5 ar       
      14        9        6 ar       
      15       16        6 ar       
      16       16       12 1        
      17        4       12 1        
      18       12        3 2        
      19       18        1 1        
      20       19        1 1        
      21       20        1 1        
      22       21        2 1        
      23       22        2 1        
      24       23        5 1        
      25       24        6 1        
      26       25        7 1        
      27       26       13 1        
      28       27       15 1        
@<TRIPOS>SUBSTRUCTURE
 1 YZ9900 10 RESIDUE 4 A YZ9900 0 ROOT

