#        1GCZ_R01_S0001_C0000_L00005_S0001_C0015_G0010_E0001.mol2
#        Tue Jun  6 09:55:41 2017
#        Descriptor:      8    26    18    14     9    14
#        Energy - RMSD - RMSD MassCentre:     -59.4410    999.9999    999.9999
#        Receptor:       1  Surface Point:     1  Conformer:     0
#        Ligand:         5  Surface Point:     1  Conformer:    15
#        BUDE Formal Charge: 0
#        ATOM Count: 55
#        Heavy ATOM Count: 30
@<TRIPOS>MOLECULE
ZINC61464195_1GCZ_R01_S0001_C0000_L00005_S0001_C0015_G0010_E0001
 55 56 0 0 0
SMALL
USER_CHARGES
@<TRIPOS>ATOM
       1 C1         0.0803    1.2074    3.6159 C.3       1 <0>        -0.1456 
       2 C2         0.7735    2.0805    4.6580 C.3       1 <0>        -0.0579 
       3 C3        -0.2690    2.6696    5.6041 C.3       1 <0>        -0.1456 
       4 C4         1.7503    1.2416    5.4465 C.ar      1 <0>        -0.0771 
       5 C5         3.1060    1.5886    5.4093 C.ar      1 <0>        -0.0943 
       6 C6         4.0246    0.8950    6.2063 C.ar      1 <0>        -0.0923 
       7 C7         3.5971   -0.1400    7.0463 C.ar      1 <0>        -0.1041 
       8 C8         2.2522   -0.5287    7.0511 C.ar      1 <0>        -0.1315 
       9 C9         1.3458    0.1473    6.2258 C.ar      1 <0>        -0.0969 
      10 S1         4.7642   -0.9584    8.0956 S.3       1 <0>        -0.0341 
      11 C10        4.8457   -0.0984    9.6974 C.3       1 <0>        -0.1267 
      12 C11        5.2978    1.3259    9.4805 C.2       1 <0>         0.4864 
      13 O1         4.4991    2.2147    9.4864 O.2       1 <0>        -0.4815 
      14 O2         6.6053    1.5955    9.2799 O.3       1 <0>        -0.3231 
      15 C12        7.5240    0.4996    9.2815 C.3       1 <0>         0.0526 
      16 C13        8.9225    1.0159    9.0416 C.2       1 <0>         0.5250 
      17 O3         9.8060    0.8057    9.8712 O.2       1 <0>        -0.5082 
      18 N1         9.1997    1.6979    7.9340 N.am      1 <0>        -0.5981 
      19 C14       10.5616    2.1998    7.7020 C.3       1 <0>         0.0731 
      20 C15        8.1439    1.9490    6.9424 C.3       1 <0>         0.1010 
      21 C16        8.6950    1.7264    5.5543 C.2       1 <0>         0.4997 
      22 O4         8.5595    2.5938    4.6929 O.2       1 <0>        -0.5061 
      23 N2         9.3266    0.5924    5.2640 N.am      1 <0>        -0.6702 
      24 C17        9.8430    0.3838    3.9632 C.ar      1 <0>         0.1553 
      25 C18        9.6909   -0.8610    3.3409 C.ar      1 <0>        -0.1106 
      26 C19       10.1972   -1.0606    2.0510 C.ar      1 <0>        -0.0959 
      27 C20       10.8604   -0.0250    1.3867 C.ar      1 <0>        -0.1208 
      28 C21       11.0248    1.2161    2.0135 C.ar      1 <0>        -0.0919 
      29 C22       10.5121    1.4196    3.3002 C.ar      1 <0>        -0.0639 
      30 Cl1       10.7179    2.9592    4.0842 Cl        1 <0>        -0.0632 
      31 H1        -0.4643    0.4096    4.1164 H         1 <0>         0.0596 
      32 H2        -0.6139    1.8148    3.0388 H         1 <0>         0.0563 
      33 H3         0.8258    0.7768    2.9507 H         1 <0>         0.0575 
      34 H4         1.3081    2.8861    4.1595 H         1 <0>         0.0784 
      35 H5         0.2251    3.3016    6.3389 H         1 <0>         0.0596 
      36 H6        -0.7933    1.8631    6.1124 H         1 <0>         0.0574 
      37 H7        -0.9807    3.2632    5.0340 H         1 <0>         0.0563 
      38 H8         3.4565    2.3971    4.7849 H         1 <0>         0.1285 
      39 H9         5.0790    1.1285    6.2159 H         1 <0>         0.1293 
      40 H10        1.9404   -1.3413    7.6904 H         1 <0>         0.1227 
      41 H11        0.3194   -0.1888    6.2153 H         1 <0>         0.1262 
      42 H12        3.8612   -0.0991   10.1607 H         1 <0>         0.1329 
      43 H13        5.5537   -0.6078   10.3478 H         1 <0>         0.1329 
      44 H14        7.2560   -0.2001    8.4924 H         1 <0>         0.1063 
      45 H15        7.4849   -0.0061   10.2440 H         1 <0>         0.1054 
      46 H16       11.2548    1.3620    7.6639 H         1 <0>         0.0686 
      47 H17       10.5924    2.7402    6.7582 H         1 <0>         0.0794 
      48 H18       10.8441    2.8682    8.5128 H         1 <0>         0.0778 
      49 H19        7.3136    1.2678    7.1173 H         1 <0>         0.1198 
      50 H20        7.7970    2.9760    7.0353 H         1 <0>         0.1233 
      51 H21        9.4373   -0.1192    5.9722 H         1 <0>         0.4142 
      52 H22        9.1798   -1.6653    3.8491 H         1 <0>         0.1473 
      53 H23       10.0722   -2.0194    1.5696 H         1 <0>         0.1337 
      54 H24       11.2472   -0.1782    0.3902 H         1 <0>         0.1349 
      55 H25       11.5427    2.0153    1.5042 H         1 <0>         0.1385 
@<TRIPOS>BOND
       1        1        2 1        
       2        1       31 1        
       3        1       32 1        
       4        1       33 1        
       5        2        3 1        
       6        2        4 1        
       7        2       34 1        
       8        3       35 1        
       9        3       36 1        
      10        3       37 1        
      11        4        9 ar       
      12        4        5 ar       
      13        5        6 ar       
      14        5       38 1        
      15        6        7 ar       
      16        6       39 1        
      17        7        8 ar       
      18        7       10 1        
      19        8        9 ar       
      20        8       40 1        
      21        9       41 1        
      22       10       11 1        
      23       11       12 1        
      24       11       42 1        
      25       11       43 1        
      26       12       13 2        
      27       12       14 1        
      28       14       15 1        
      29       15       16 1        
      30       15       44 1        
      31       15       45 1        
      32       16       17 2        
      33       16       18 am       
      34       18       19 1        
      35       18       20 1        
      36       19       46 1        
      37       19       47 1        
      38       19       48 1        
      39       20       21 1        
      40       20       49 1        
      41       20       50 1        
      42       21       22 2        
      43       21       23 am       
      44       23       24 1        
      45       23       51 1        
      46       24       29 ar       
      47       24       25 ar       
      48       25       26 ar       
      49       25       52 1        
      50       26       27 ar       
      51       26       53 1        
      52       27       28 ar       
      53       27       54 1        
      54       28       29 ar       
      55       28       55 1        
      56       29       30 1        

