#        scan_R01_S0086_C0000_L00001_S0001_C0003_G0010_E0001.mol2
#        Mon Jun 19 14:15:13 2017
#        Descriptor:     33     1    13     1     2     4
#        Energy - RMSD - RMSD MassCentre:     -45.9131    999.9999    999.9999
#        Receptor:       1  Surface Point:    86  Conformer:     0
#        Ligand:         1  Surface Point:     1  Conformer:     3
#        BUDE Formal Charge: 0
#        ATOM Count: 27
#        Heavy ATOM Count: 17
@<TRIPOS>MOLECULE
pdb1gcz_ligA.pdb_scan_R01_S0086_C0000_L00001_S0001_C0003_G0010_E0001
27 28 1 0 0
SMALL
GASTEIGER
@<TRIPOS>ATOM
       1 C3         3.0907   -5.3741    3.8455 C.3       1 YZ9900      0.0513 
       2 C11        2.3419   -5.5386    2.5261 C.3       1 YZ9900      0.2089 
       3 O1         0.5517   -4.3179    4.0151 O.2       1 YZ9900     -0.2447 
       4 O2         1.7443   -4.2922    2.1596 O.3       1 YZ9900     -0.4453 
       5 C6        -2.2935   -0.0292    3.9639 C.ar      1 YZ9900      0.0063 
       6 C5        -0.7151   -1.9113    3.4805 C.ar      1 YZ9900      0.0160 
       7 C4        -1.5867    1.2315    1.5822 C.ar      1 YZ9900      0.0796 
       8 O3        -0.0518   -0.5536    1.0658 O.2       1 YZ9900     -0.4208 
       9 C2        -1.3467   -0.6219    3.1218 C.ar      1 YZ9900      0.0353 
      10 C1        -0.9914    0.0116    1.9250 C.ar      1 YZ9900      0.1519 
      11 C7         0.5398   -1.7674    1.4079 C.ar      1 YZ9900      0.3521 
      12 C12        0.8352   -3.7543    3.0003 C.2       1 YZ9900      0.3476 
      13 O4        -3.0899    3.0234    2.0430 O.3       1 YZ9900     -0.2865 
      14 O5         1.3601   -2.2450    0.6415 O.2       1 YZ9900     -0.2442 
      15 C10       -2.8857    1.1908    3.6162 C.ar      1 YZ9900      0.0422 
      16 C9         0.1892   -2.4658    2.6646 C.ar      1 YZ9900      0.1515 
      17 C8        -2.5348    1.8293    2.4209 C.ar      1 YZ9900      0.1988 
      18 H31        2.3913   -5.0763    4.6240 H         1 YZ9900      0.0000 
      19 H32        3.5565   -6.3189    4.1176 H         1 YZ9900      0.0000 
      20 H33        3.8572   -4.6101    3.7340 H         1 YZ9900      0.0000 
      21 H112       1.5657   -6.2924    2.6404 H         1 YZ9900      0.0000 
      22 H113       3.0379   -5.8486    1.7496 H         1 YZ9900      0.0000 
      23 H6        -2.5724   -0.5121    4.8888 H         1 YZ9900      0.0000 
      24 H5        -0.9959   -2.3921    4.4060 H         1 YZ9900      0.0000 
      25 H4        -1.3095    1.7164    0.6578 H         1 YZ9900      0.0000 
      26 HO4       -2.7195    3.3272    1.1995 H         1 YZ9900      0.0000 
      27 H10       -3.6139    1.6272    4.2838 H         1 YZ9900      0.0000 
@<TRIPOS>BOND
       1       13       17 1        
       2        7       17 ar       
       3        7       10 ar       
       4        8       10 ar       
       5        8       11 ar       
       6       14       11 2        
       7       17       15 ar       
       8       10        9 ar       
       9       11       16 ar       
      10        2        4 1        
      11        2        1 1        
      12       15        5 ar       
      13        9        5 ar       
      14        9        6 ar       
      15       16        6 ar       
      16       16       12 1        
      17        4       12 1        
      18       12        3 2        
      19       18        1 1        
      20       19        1 1        
      21       20        1 1        
      22       21        2 1        
      23       22        2 1        
      24       23        5 1        
      25       24        6 1        
      26       25        7 1        
      27       26       13 1        
      28       27       15 1        
@<TRIPOS>SUBSTRUCTURE
 1 YZ9900 10 RESIDUE 4 A YZ9900 0 ROOT

