#        scan_R01_S0087_C0000_L00001_S0001_C0000_G0010_E0001.mol2
#        Mon Jun 19 14:15:14 2017
#        Descriptor:     20    35     6     2     1     4
#        Energy - RMSD - RMSD MassCentre:     -43.2936    999.9999    999.9999
#        Receptor:       1  Surface Point:    87  Conformer:     0
#        Ligand:         1  Surface Point:     1  Conformer:     0
#        BUDE Formal Charge: 0
#        ATOM Count: 27
#        Heavy ATOM Count: 17
@<TRIPOS>MOLECULE
pdb1gcz_ligA.pdb_scan_R01_S0087_C0000_L00001_S0001_C0000_G0010_E0001
27 28 1 0 0
SMALL
GASTEIGER
@<TRIPOS>ATOM
       1 C3        -1.7351    3.7890    1.6995 C.3       1 YZ9900      0.0513 
       2 C11       -1.5889    2.6350    2.6496 C.3       1 YZ9900      0.2089 
       3 O1        -2.6184    0.4494    0.2270 O.2       1 YZ9900     -0.2447 
       4 O2        -2.4544    1.5154    2.2046 O.3       1 YZ9900     -0.4453 
       5 C6         1.7046   -2.5270    0.1927 C.ar      1 YZ9900      0.0063 
       6 C5        -0.2933   -1.0687    0.6847 C.ar      1 YZ9900      0.0160 
       7 C4         1.8888   -3.1789    3.0512 C.ar      1 YZ9900      0.0796 
       8 O3        -0.0246   -1.7641    3.4063 O.2       1 YZ9900     -0.4208 
       9 C2         0.7923   -1.9940    1.1342 C.ar      1 YZ9900      0.0353 
      10 C1         0.8978   -2.3234    2.5205 C.ar      1 YZ9900      0.1519 
      11 C7        -0.9410   -0.8946    3.0463 C.ar      1 YZ9900      0.3521 
      12 C12       -2.1208    0.5387    1.3080 C.2       1 YZ9900      0.3476 
      13 O4         3.7766   -4.5111    2.4477 O.3       1 YZ9900     -0.2865 
      14 O5        -1.6348   -0.4446    3.8677 O.2       1 YZ9900     -0.2442 
      15 C10        2.7262   -3.3946    0.6774 C.ar      1 YZ9900      0.0422 
      16 C9        -1.0873   -0.4952    1.6404 C.ar      1 YZ9900      0.1515 
      17 C8         2.7873   -3.6885    2.0585 C.ar      1 YZ9900      0.1988 
      18 H31       -1.4624    3.4691    0.6937 H         1 YZ9900      0.0000 
      19 H32       -2.7693    4.1333    1.7030 H         1 YZ9900      0.0000 
      20 H33       -1.0803    4.6023    2.0123 H         1 YZ9900      0.0000 
      21 H112      -1.8863    2.9485    3.6504 H         1 YZ9900      0.0000 
      22 H113      -0.5496    2.3067    2.6655 H         1 YZ9900      0.0000 
      23 H6         1.6293   -2.2847   -0.8570 H         1 YZ9900      0.0000 
      24 H5        -0.4461   -0.8591   -0.3637 H         1 YZ9900      0.0000 
      25 H4         1.9618   -3.4243    4.1004 H         1 YZ9900      0.0000 
      26 HO4        4.6177   -4.0524    2.3860 H         1 YZ9900      0.0000 
      27 H10        3.4464   -3.8231   -0.0038 H         1 YZ9900      0.0000 
@<TRIPOS>BOND
       1       13       17 1        
       2        7       17 ar       
       3        7       10 ar       
       4        8       10 ar       
       5        8       11 ar       
       6       14       11 2        
       7       17       15 ar       
       8       10        9 ar       
       9       11       16 ar       
      10        2        4 1        
      11        2        1 1        
      12       15        5 ar       
      13        9        5 ar       
      14        9        6 ar       
      15       16        6 ar       
      16       16       12 1        
      17        4       12 1        
      18       12        3 2        
      19       18        1 1        
      20       19        1 1        
      21       20        1 1        
      22       21        2 1        
      23       22        2 1        
      24       23        5 1        
      25       24        6 1        
      26       25        7 1        
      27       26       13 1        
      28       27       15 1        
@<TRIPOS>SUBSTRUCTURE
 1 YZ9900 10 RESIDUE 4 A YZ9900 0 ROOT

