#        scan_R01_S0087_C0000_L00001_S0001_C0002_G0010_E0001.mol2
#        Mon Jun 19 14:43:20 2017
#        Descriptor:     10     2     8     2     2     4
#        Energy - RMSD - RMSD MassCentre:     -42.3361    999.9999    999.9999
#        Receptor:       1  Surface Point:    87  Conformer:     0
#        Ligand:         1  Surface Point:     1  Conformer:     2
#        BUDE Formal Charge: 0
#        ATOM Count: 27
#        Heavy ATOM Count: 17
@<TRIPOS>MOLECULE
pdb1gcz_ligA.pdb_scan_R01_S0087_C0000_L00001_S0001_C0002_G0010_E0001
27 28 1 0 0
SMALL
GASTEIGER
@<TRIPOS>ATOM
       1 C3        -0.3152   -6.9201   -0.5804 C.3       1 YZ9900      0.0513 
       2 C11        0.8658   -5.9737   -0.3847 C.3       1 YZ9900      0.2089 
       3 O1         2.4630   -3.9582    0.1616 O.2       1 YZ9900     -0.2447 
       4 O2         0.3984   -4.7350    0.1557 O.3       1 YZ9900     -0.4453 
       5 C6         2.2004    0.8295    2.0326 C.ar      1 YZ9900      0.0063 
       6 C5         1.7532   -1.4912    1.2069 C.ar      1 YZ9900      0.0160 
       7 C4        -0.5085    1.2093    2.5607 C.ar      1 YZ9900      0.0796 
       8 O3        -0.9972   -1.0170    1.7770 O.2       1 YZ9900     -0.4208 
       9 C2         1.2924   -0.2008    1.7663 C.ar      1 YZ9900      0.0353 
      10 C1        -0.0688   -0.0100    2.0316 C.ar      1 YZ9900      0.1519 
      11 C7        -0.5586   -2.2297    1.2505 C.ar      1 YZ9900      0.3521 
      12 C12        1.3074   -3.7667    0.3982 C.2       1 YZ9900      0.3476 
      13 O4        -0.0820    3.4190    3.3469 O.3       1 YZ9900     -0.2865 
      14 O5        -1.3879   -3.0981    1.0350 O.2       1 YZ9900     -0.2442 
      15 C10        1.7553    2.0468    2.5617 C.ar      1 YZ9900      0.0422 
      16 C9         0.8724   -2.4674    0.9573 C.ar      1 YZ9900      0.1515 
      17 C8         0.3955    2.2439    2.8293 C.ar      1 YZ9900      0.1988 
      18 H31       -1.0231   -6.4762   -1.2774 H         1 YZ9900      0.0000 
      19 H32        0.0422   -7.8671   -0.9791 H         1 YZ9900      0.0000 
      20 H33       -0.8051   -7.0902    0.3760 H         1 YZ9900      0.0000 
      21 H112       1.3481   -5.7915   -1.3428 H         1 YZ9900      0.0000 
      22 H113       1.5805   -6.4217    0.3024 H         1 YZ9900      0.0000 
      23 H6         3.2520    0.6895    1.8304 H         1 YZ9900      0.0000 
      24 H5         2.8054   -1.6285    1.0057 H         1 YZ9900      0.0000 
      25 H4        -1.5597    1.3518    2.7638 H         1 YZ9900      0.0000 
      26 HO4       -1.0459    3.3864    3.4513 H         1 YZ9900      0.0000 
      27 H10        2.4768    2.8261    2.7583 H         1 YZ9900      0.0000 
@<TRIPOS>BOND
       1       13       17 1        
       2        7       17 ar       
       3        7       10 ar       
       4        8       10 ar       
       5        8       11 ar       
       6       14       11 2        
       7       17       15 ar       
       8       10        9 ar       
       9       11       16 ar       
      10        2        4 1        
      11        2        1 1        
      12       15        5 ar       
      13        9        5 ar       
      14        9        6 ar       
      15       16        6 ar       
      16       16       12 1        
      17        4       12 1        
      18       12        3 2        
      19       18        1 1        
      20       19        1 1        
      21       20        1 1        
      22       21        2 1        
      23       22        2 1        
      24       23        5 1        
      25       24        6 1        
      26       25        7 1        
      27       26       13 1        
      28       27       15 1        
@<TRIPOS>SUBSTRUCTURE
 1 YZ9900 10 RESIDUE 4 A YZ9900 0 ROOT

