#        scan_R01_S0087_C0000_L00001_S0001_C0002_G0010_E0001.mol2
#        Mon Jun 19 14:15:14 2017
#        Descriptor:     27    16    26     2     1     4
#        Energy - RMSD - RMSD MassCentre:     -40.5105    999.9999    999.9999
#        Receptor:       1  Surface Point:    87  Conformer:     0
#        Ligand:         1  Surface Point:     1  Conformer:     2
#        BUDE Formal Charge: 0
#        ATOM Count: 27
#        Heavy ATOM Count: 17
@<TRIPOS>MOLECULE
pdb1gcz_ligA.pdb_scan_R01_S0087_C0000_L00001_S0001_C0002_G0010_E0001
27 28 1 0 0
SMALL
GASTEIGER
@<TRIPOS>ATOM
       1 C3        -0.3249   -7.9725   -0.4339 C.3       1 YZ9900      0.0513 
       2 C11        0.8657   -7.0891   -0.0723 C.3       1 YZ9900      0.2089 
       3 O1         2.4763   -5.1511    0.6773 O.2       1 YZ9900     -0.2447 
       4 O2         0.3952   -5.8085    0.3562 O.3       1 YZ9900     -0.4453 
       5 C6         2.2138   -0.2969    2.3681 C.ar      1 YZ9900      0.0063 
       6 C5         1.7620   -2.6144    1.5358 C.ar      1 YZ9900      0.0160 
       7 C4        -0.5160    0.2543    2.4426 C.ar      1 YZ9900      0.0796 
       8 O3        -1.0095   -1.9652    1.6428 O.2       1 YZ9900     -0.4208 
       9 C2         1.2983   -1.2819    1.9829 C.ar      1 YZ9900      0.0353 
      10 C1        -0.0735   -1.0050    2.0203 C.ar      1 YZ9900      0.1519 
      11 C7        -0.5680   -3.2178    1.2228 C.ar      1 YZ9900      0.3521 
      12 C12        1.3118   -4.8862    0.7195 C.2       1 YZ9900      0.3476 
      13 O4        -0.0852    2.4609    3.2351 O.3       1 YZ9900     -0.2865 
      14 O5        -1.4042   -4.0441    0.8966 O.2       1 YZ9900     -0.2442 
      15 C10        1.7658    0.9607    2.7896 C.ar      1 YZ9900      0.0422 
      16 C9         0.8740   -3.5464    1.1703 C.ar      1 YZ9900      0.1515 
      17 C8         0.3955    1.2439    2.8293 C.ar      1 YZ9900      0.1988 
      18 H31       -0.8836   -7.5123   -1.2464 H         1 YZ9900      0.0000 
      19 H32        0.0325   -8.9511   -0.7473 H         1 YZ9900      0.0000 
      20 H33       -0.9709   -8.0826    0.4345 H         1 YZ9900      0.0000 
      21 H112       1.5053   -6.9666   -0.9440 H         1 YZ9900      0.0000 
      22 H113       1.4323   -7.5542    0.7316 H         1 YZ9900      0.0000 
      23 H6         3.2736   -0.5033    2.3418 H         1 YZ9900      0.0000 
      24 H5         2.8224   -2.8181    1.5105 H         1 YZ9900      0.0000 
      25 H4        -1.5754    0.4632    2.4698 H         1 YZ9900      0.0000 
      26 HO4       -1.0535    2.4868    3.1832 H         1 YZ9900      0.0000 
      27 H10        2.4933    1.7036    3.0818 H         1 YZ9900      0.0000 
@<TRIPOS>BOND
       1       13       17 1        
       2        7       17 ar       
       3        7       10 ar       
       4        8       10 ar       
       5        8       11 ar       
       6       14       11 2        
       7       17       15 ar       
       8       10        9 ar       
       9       11       16 ar       
      10        2        4 1        
      11        2        1 1        
      12       15        5 ar       
      13        9        5 ar       
      14        9        6 ar       
      15       16        6 ar       
      16       16       12 1        
      17        4       12 1        
      18       12        3 2        
      19       18        1 1        
      20       19        1 1        
      21       20        1 1        
      22       21        2 1        
      23       22        2 1        
      24       23        5 1        
      25       24        6 1        
      26       25        7 1        
      27       26       13 1        
      28       27       15 1        
@<TRIPOS>SUBSTRUCTURE
 1 YZ9900 10 RESIDUE 4 A YZ9900 0 ROOT

