#        scan_R01_S0087_C0000_L00001_S0001_C0003_G0010_E0001.mol2
#        Mon Jun 19 14:43:20 2017
#        Descriptor:     28    18    26     2     1     4
#        Energy - RMSD - RMSD MassCentre:     -40.2707    999.9999    999.9999
#        Receptor:       1  Surface Point:    87  Conformer:     0
#        Ligand:         1  Surface Point:     1  Conformer:     3
#        BUDE Formal Charge: 0
#        ATOM Count: 27
#        Heavy ATOM Count: 17
@<TRIPOS>MOLECULE
pdb1gcz_ligA.pdb_scan_R01_S0087_C0000_L00001_S0001_C0003_G0010_E0001
27 28 1 0 0
SMALL
GASTEIGER
@<TRIPOS>ATOM
       1 C3         1.3599   -7.6606    0.3244 C.3       1 YZ9900      0.0513 
       2 C11        0.7842   -7.4365    1.7198 C.3       1 YZ9900      0.2089 
       3 O1         2.3902   -5.3713    1.4594 O.2       1 YZ9900     -0.2447 
       4 O2         0.3370   -6.0833    1.8381 O.3       1 YZ9900     -0.4453 
       5 C6         2.1898   -0.2308    1.6206 C.ar      1 YZ9900      0.0063 
       6 C5         1.7183   -2.6892    1.6529 C.ar      1 YZ9900      0.0160 
       7 C4        -0.4868    0.3327    2.1498 C.ar      1 YZ9900      0.0796 
       8 O3        -0.9981   -2.0223    2.1922 O.2       1 YZ9900     -0.4208 
       9 C2         1.2782   -1.2811    1.7713 C.ar      1 YZ9900      0.0353 
      10 C1        -0.0667   -0.9981    2.0371 C.ar      1 YZ9900      0.1519 
      11 C7        -0.5791   -3.3460    2.0799 C.ar      1 YZ9900      0.3521 
      12 C12        1.2488   -5.0994    1.6859 C.2       1 YZ9900      0.3476 
      13 O4        -0.0372    2.6736    2.1189 O.3       1 YZ9900     -0.2865 
      14 O5        -1.4107   -4.2277    2.2192 O.2       1 YZ9900     -0.2442 
      15 C10        1.7644    1.0982    1.7342 C.ar      1 YZ9900      0.0422 
      16 C9         0.8344   -3.6833    1.7995 C.ar      1 YZ9900      0.1515 
      17 C8         0.4209    1.3879    2.0000 C.ar      1 YZ9900      0.1988 
      18 H31        2.2068   -6.9950    0.1710 H         1 YZ9900      0.0000 
      19 H32        1.6879   -8.6937    0.2299 H         1 YZ9900      0.0000 
      20 H33        0.5948   -7.4528   -0.4206 H         1 YZ9900      0.0000 
      21 H112       1.5525   -7.6303    2.4653 H         1 YZ9900      0.0000 
      22 H113      -0.0550   -8.1103    1.8791 H         1 YZ9900      0.0000 
      23 H6         3.2289   -0.4415    1.4153 H         1 YZ9900      0.0000 
      24 H5         2.7580   -2.8971    1.4476 H         1 YZ9900      0.0000 
      25 H4        -1.5254    0.5461    2.3551 H         1 YZ9900      0.0000 
      26 HO4       -0.9927    2.6879    2.2853 H         1 YZ9900      0.0000 
      27 H10        2.4882    1.8907    1.6136 H         1 YZ9900      0.0000 
@<TRIPOS>BOND
       1       13       17 1        
       2        7       17 ar       
       3        7       10 ar       
       4        8       10 ar       
       5        8       11 ar       
       6       14       11 2        
       7       17       15 ar       
       8       10        9 ar       
       9       11       16 ar       
      10        2        4 1        
      11        2        1 1        
      12       15        5 ar       
      13        9        5 ar       
      14        9        6 ar       
      15       16        6 ar       
      16       16       12 1        
      17        4       12 1        
      18       12        3 2        
      19       18        1 1        
      20       19        1 1        
      21       20        1 1        
      22       21        2 1        
      23       22        2 1        
      24       23        5 1        
      25       24        6 1        
      26       25        7 1        
      27       26       13 1        
      28       27       15 1        
@<TRIPOS>SUBSTRUCTURE
 1 YZ9900 10 RESIDUE 4 A YZ9900 0 ROOT

