#        scan_R01_S0087_C0000_L00001_S0001_C0003_G0010_E0001.mol2
#        Mon Jun 19 14:15:15 2017
#        Descriptor:     35    16    14     2     1     5
#        Energy - RMSD - RMSD MassCentre:     -40.4774    999.9999    999.9999
#        Receptor:       1  Surface Point:    87  Conformer:     0
#        Ligand:         1  Surface Point:     1  Conformer:     3
#        BUDE Formal Charge: 0
#        ATOM Count: 27
#        Heavy ATOM Count: 17
@<TRIPOS>MOLECULE
pdb1gcz_ligA.pdb_scan_R01_S0087_C0000_L00001_S0001_C0003_G0010_E0001
27 28 1 0 0
SMALL
GASTEIGER
@<TRIPOS>ATOM
       1 C3        -3.3238    2.7300   -1.9051 C.3       1 YZ9900      0.0513 
       2 C11       -4.2206    2.0415   -0.8803 C.3       1 YZ9900      0.2089 
       3 O1        -2.3431    0.2393   -1.2529 O.2       1 YZ9900     -0.2447 
       4 O2        -3.4172    1.5237    0.1833 O.3       1 YZ9900     -0.4453 
       5 C6         1.1356   -2.3906    1.4809 C.ar      1 YZ9900      0.0063 
       6 C5        -0.6896   -0.8820    0.6683 C.ar      1 YZ9900      0.0160 
       7 C4         0.7613   -1.5052    4.0958 C.ar      1 YZ9900      0.0796 
       8 O3        -1.0040   -0.0337    3.3694 O.2       1 YZ9900     -0.4208 
       9 C2         0.1536   -1.4321    1.7530 C.ar      1 YZ9900      0.0353 
      10 C1        -0.0345   -0.9871    3.0669 C.ar      1 YZ9900      0.1519 
      11 C7        -1.7952    0.4811    2.3449 C.ar      1 YZ9900      0.3521 
      12 C12       -2.4810    0.6002   -0.1221 C.2       1 YZ9900      0.3476 
      13 O4         2.4993   -2.9419    4.8690 O.3       1 YZ9900     -0.2865 
      14 O5        -2.6383    1.3150    2.6314 O.2       1 YZ9900     -0.2442 
      15 C10        1.9285   -2.9053    2.5135 C.ar      1 YZ9900      0.0422 
      16 C9        -1.6248    0.0345    0.9443 C.ar      1 YZ9900      0.1515 
      17 C8         1.7454   -2.4645    3.8295 C.ar      1 YZ9900      0.1988 
      18 H31       -2.6207    2.0075   -2.3143 H         1 YZ9900      0.0000 
      19 H32       -3.9363    3.1357   -2.7076 H         1 YZ9900      0.0000 
      20 H33       -2.7762    3.5369   -1.4228 H         1 YZ9900      0.0000 
      21 H112      -4.7583    1.2253   -1.3582 H         1 YZ9900      0.0000 
      22 H113      -4.9324    2.7601   -0.4795 H         1 YZ9900      0.0000 
      23 H6         1.2864   -2.7386    0.4697 H         1 YZ9900      0.0000 
      24 H5        -0.5367   -1.2317   -0.3420 H         1 YZ9900      0.0000 
      25 H4         0.6124   -1.1588    5.1079 H         1 YZ9900      0.0000 
      26 HO4        2.2498   -2.5153    5.7037 H         1 YZ9900      0.0000 
      27 H10        2.6796   -3.6444    2.2767 H         1 YZ9900      0.0000 
@<TRIPOS>BOND
       1       13       17 1        
       2        7       17 ar       
       3        7       10 ar       
       4        8       10 ar       
       5        8       11 ar       
       6       14       11 2        
       7       17       15 ar       
       8       10        9 ar       
       9       11       16 ar       
      10        2        4 1        
      11        2        1 1        
      12       15        5 ar       
      13        9        5 ar       
      14        9        6 ar       
      15       16        6 ar       
      16       16       12 1        
      17        4       12 1        
      18       12        3 2        
      19       18        1 1        
      20       19        1 1        
      21       20        1 1        
      22       21        2 1        
      23       22        2 1        
      24       23        5 1        
      25       24        6 1        
      26       25        7 1        
      27       26       13 1        
      28       27       15 1        
@<TRIPOS>SUBSTRUCTURE
 1 YZ9900 10 RESIDUE 4 A YZ9900 0 ROOT

