#        scan_R01_S0088_C0000_L00001_S0001_C0000_G0010_E0001.mol2
#        Mon Jun 19 14:43:21 2017
#        Descriptor:      2    33    36     3     1     5
#        Energy - RMSD - RMSD MassCentre:     -38.6485    999.9999    999.9999
#        Receptor:       1  Surface Point:    88  Conformer:     0
#        Ligand:         1  Surface Point:     1  Conformer:     0
#        BUDE Formal Charge: 0
#        ATOM Count: 27
#        Heavy ATOM Count: 17
@<TRIPOS>MOLECULE
pdb1gcz_ligA.pdb_scan_R01_S0088_C0000_L00001_S0001_C0000_G0010_E0001
27 28 1 0 0
SMALL
GASTEIGER
@<TRIPOS>ATOM
       1 C3         3.7057   -4.8971    1.1220 C.3       1 YZ9900      0.0513 
       2 C11        2.3854   -4.1935    0.9895 C.3       1 YZ9900      0.2089 
       3 O1         2.0983   -3.9924    4.3929 O.2       1 YZ9900     -0.2447 
       4 O2         1.5971   -4.3832    2.2319 O.3       1 YZ9900     -0.4453 
       5 C6         1.8016    1.2397    4.6866 C.ar      1 YZ9900      0.0063 
       6 C5         1.6876   -1.2196    4.1401 C.ar      1 YZ9900      0.0160 
       7 C4        -0.3978    1.7252    2.8006 C.ar      1 YZ9900      0.0796 
       8 O3        -0.4203   -0.6392    2.3560 O.2       1 YZ9900     -0.4208 
       9 C2         1.2005    0.1831    3.9619 C.ar      1 YZ9900      0.0353 
      10 C1         0.1314    0.4392    3.0495 C.ar      1 YZ9900      0.1519 
      11 C7         0.0370   -1.8676    2.4423 C.ar      1 YZ9900      0.3521 
      12 C12        1.6533   -3.6061    3.3551 C.2       1 YZ9900      0.3476 
      13 O4        -0.1705    4.0262    3.3978 O.3       1 YZ9900     -0.2865 
      14 O5        -0.4582   -2.6935    1.7855 O.2       1 YZ9900     -0.2442 
      15 C10        1.3057    2.5582    4.4699 C.ar      1 YZ9900      0.0422 
      16 C9         1.1496   -2.1940    3.3439 C.ar      1 YZ9900      0.1515 
      17 C8         0.2464    2.7581    3.5559 C.ar      1 YZ9900      0.1988 
      18 H31        4.2444   -4.5010    1.9828 H         1 YZ9900      0.0000 
      19 H32        3.5357   -5.9650    1.2600 H         1 YZ9900      0.0000 
      20 H33        4.2949   -4.7367    0.2192 H         1 YZ9900      0.0000 
      21 H112       1.8361   -4.6078    0.1440 H         1 YZ9900      0.0000 
      22 H113       2.5554   -3.1293    0.8260 H         1 YZ9900      0.0000 
      23 H6         2.6082    1.0533    5.3801 H         1 YZ9900      0.0000 
      24 H5         2.4419   -1.4568    4.8756 H         1 YZ9900      0.0000 
      25 H4        -1.2070    1.9111    2.1100 H         1 YZ9900      0.0000 
      26 HO4        0.4955    4.5252    2.9195 H         1 YZ9900      0.0000 
      27 H10        1.7352    3.3962    4.9988 H         1 YZ9900      0.0000 
@<TRIPOS>BOND
       1       13       17 1        
       2        7       17 ar       
       3        7       10 ar       
       4        8       10 ar       
       5        8       11 ar       
       6       14       11 2        
       7       17       15 ar       
       8       10        9 ar       
       9       11       16 ar       
      10        2        4 1        
      11        2        1 1        
      12       15        5 ar       
      13        9        5 ar       
      14        9        6 ar       
      15       16        6 ar       
      16       16       12 1        
      17        4       12 1        
      18       12        3 2        
      19       18        1 1        
      20       19        1 1        
      21       20        1 1        
      22       21        2 1        
      23       22        2 1        
      24       23        5 1        
      25       24        6 1        
      26       25        7 1        
      27       26       13 1        
      28       27       15 1        
@<TRIPOS>SUBSTRUCTURE
 1 YZ9900 10 RESIDUE 4 A YZ9900 0 ROOT

