#        scan_R01_S0088_C0000_L00001_S0001_C0002_G0010_E0001.mol2
#        Mon Jun 19 14:43:21 2017
#        Descriptor:     13     2    11     3     1     5
#        Energy - RMSD - RMSD MassCentre:     -37.7550    999.9999    999.9999
#        Receptor:       1  Surface Point:    88  Conformer:     0
#        Ligand:         1  Surface Point:     1  Conformer:     2
#        BUDE Formal Charge: 0
#        ATOM Count: 27
#        Heavy ATOM Count: 17
@<TRIPOS>MOLECULE
pdb1gcz_ligA.pdb_scan_R01_S0088_C0000_L00001_S0001_C0002_G0010_E0001
27 28 1 0 0
SMALL
GASTEIGER
@<TRIPOS>ATOM
       1 C3         3.9886   -7.0642    0.0103 C.3       1 YZ9900      0.0513 
       2 C11        4.2609   -5.5834   -0.2374 C.3       1 YZ9900      0.2089 
       3 O1         4.2926   -2.9545   -0.2329 O.2       1 YZ9900     -0.2447 
       4 O2         3.4150   -4.7965    0.6054 O.3       1 YZ9900     -0.4453 
       5 C6         1.9455    0.9697    2.1299 C.ar      1 YZ9900      0.0063 
       6 C5         2.7401   -1.2611    1.3177 C.ar      1 YZ9900      0.0160 
       7 C4         0.1541   -0.2566    3.8758 C.ar      1 YZ9900      0.0796 
       8 O3         0.8807   -2.4307    3.1312 O.2       1 YZ9900     -0.4208 
       9 C2         1.8747   -0.4265    2.1807 C.ar      1 YZ9900      0.0353 
      10 C1         0.9744   -1.0427    3.0579 C.ar      1 YZ9900      0.1519 
      11 C7         1.6974   -3.2119    2.3170 C.ar      1 YZ9900      0.3521 
      12 C12        3.5149   -3.4526    0.5255 C.2       1 YZ9900      0.3476 
      13 O4        -0.6022    1.8679    4.6488 O.3       1 YZ9900     -0.2865 
      14 O5         1.5995   -4.4253    2.3968 O.2       1 YZ9900     -0.2442 
      15 C10        1.1228    1.7511    2.9500 C.ar      1 YZ9900      0.0422 
      16 C9         2.6607   -2.5956    1.3776 C.ar      1 YZ9900      0.1515 
      17 C8         0.2206    1.1410    3.8294 C.ar      1 YZ9900      0.1988 
      18 H31        2.9501   -7.2860   -0.2269 H         1 YZ9900      0.0000 
      19 H32        4.6414   -7.6629   -0.6214 H         1 YZ9900      0.0000 
      20 H33        4.1803   -7.2977    1.0555 H         1 YZ9900      0.0000 
      21 H112       4.0560   -5.3455   -1.2792 H         1 YZ9900      0.0000 
      22 H113       5.3022   -5.3628   -0.0125 H         1 YZ9900      0.0000 
      23 H6         2.6376    1.4521    1.4555 H         1 YZ9900      0.0000 
      24 H5         3.4313   -0.7761    0.6443 H         1 YZ9900      0.0000 
      25 H4        -0.5389   -0.7366    4.5511 H         1 YZ9900      0.0000 
      26 HO4       -1.1710    1.2849    5.1756 H         1 YZ9900      0.0000 
      27 H10        1.1972    2.8269    2.8915 H         1 YZ9900      0.0000 
@<TRIPOS>BOND
       1       13       17 1        
       2        7       17 ar       
       3        7       10 ar       
       4        8       10 ar       
       5        8       11 ar       
       6       14       11 2        
       7       17       15 ar       
       8       10        9 ar       
       9       11       16 ar       
      10        2        4 1        
      11        2        1 1        
      12       15        5 ar       
      13        9        5 ar       
      14        9        6 ar       
      15       16        6 ar       
      16       16       12 1        
      17        4       12 1        
      18       12        3 2        
      19       18        1 1        
      20       19        1 1        
      21       20        1 1        
      22       21        2 1        
      23       22        2 1        
      24       23        5 1        
      25       24        6 1        
      26       25        7 1        
      27       26       13 1        
      28       27       15 1        
@<TRIPOS>SUBSTRUCTURE
 1 YZ9900 10 RESIDUE 4 A YZ9900 0 ROOT

