#        1GCZ_R01_S0001_C0000_L00005_S0001_C0015_G0010_E0001.mol2
#        Tue Jun  6 14:06:03 2017
#        Descriptor:      3    23    11    12     7    13
#        Energy - RMSD - RMSD MassCentre:     -60.0390    999.9999    999.9999
#        Receptor:       1  Surface Point:     1  Conformer:     0
#        Ligand:         5  Surface Point:     1  Conformer:    15
#        BUDE Formal Charge: 0
#        ATOM Count: 55
#        Heavy ATOM Count: 30
@<TRIPOS>MOLECULE
ZINC61464195_1GCZ_R01_S0001_C0000_L00005_S0001_C0015_G0010_E0001
 55 56 0 0 0
SMALL
USER_CHARGES
@<TRIPOS>ATOM
       1 C1        -1.1723   -0.3841    1.3070 C.3       1 <0>        -0.1456 
       2 C2        -0.2522    0.6631    1.9279 C.3       1 <0>        -0.0579 
       3 C3        -1.0252    1.9626    2.1339 C.3       1 <0>        -0.1456 
       4 C4         0.2522    0.1622    3.2599 C.ar      1 <0>        -0.0771 
       5 C5         1.6322   -0.0012    3.4296 C.ar      1 <0>        -0.0943 
       6 C6         2.1414   -0.3678    4.6811 C.ar      1 <0>        -0.0923 
       7 C7         1.2813   -0.5663    5.7677 C.ar      1 <0>        -0.1041 
       8 C8        -0.1035   -0.4566    5.5947 C.ar      1 <0>        -0.1315 
       9 C9        -0.6070   -0.1231    4.3318 C.ar      1 <0>        -0.0969 
      10 S1         1.9515   -0.9631    7.3571 S.3       1 <0>        -0.0341 
      11 C10        2.2730    0.5726    8.2794 C.3       1 <0>        -0.1267 
      12 C11        3.2737    1.4129    7.5227 C.2       1 <0>         0.4864 
      13 O1         2.9026    2.3434    6.8711 O.2       1 <0>        -0.4815 
      14 O2         4.5886    1.1129    7.5823 O.3       1 <0>        -0.3231 
      15 C12        4.9852   -0.0094    8.3748 C.3       1 <0>         0.0526 
      16 C13        6.4851   -0.1686    8.3054 C.2       1 <0>         0.5250 
      17 O3         7.1553   -0.1334    9.3362 O.2       1 <0>        -0.5082 
      18 N1         7.0822   -0.3467    7.1304 N.am      1 <0>        -0.5981 
      19 C14        8.5425   -0.5016    7.0646 C.3       1 <0>         0.0731 
      20 C15        6.2813   -0.3890    5.8985 C.3       1 <0>         0.1010 
      21 C16        6.7810   -1.5047    5.0122 C.2       1 <0>         0.4997 
      22 O4         7.0609   -1.2771    3.8363 O.2       1 <0>        -0.5061 
      23 N2         6.9184   -2.7330    5.5037 N.am      1 <0>        -0.6702 
      24 C17        7.3867   -3.7785    4.6732 C.ar      1 <0>         0.1553 
      25 C18        6.7845   -5.0411    4.7304 C.ar      1 <0>        -0.1106 
      26 C19        7.2466   -6.0705    3.9017 C.ar      1 <0>        -0.0959 
      27 C20        8.3111   -5.8445    3.0246 C.ar      1 <0>        -0.1208 
      28 C21        8.9227   -4.5860    2.9763 C.ar      1 <0>        -0.0919 
      29 C22        8.4566   -3.5534    3.7987 C.ar      1 <0>        -0.0639 
      30 Cl1        9.2166   -1.9891    3.7447 Cl        1 <0>        -0.0632 
      31 H1        -2.0223   -0.5545    1.9641 H         1 <0>         0.0596 
      32 H2        -1.5251   -0.0288    0.3410 H         1 <0>         0.0563 
      33 H3        -0.6239   -1.3143    1.1736 H         1 <0>         0.0575 
      34 H4         0.5919    0.8435    1.2658 H         1 <0>         0.0784 
      35 H5        -0.3649    2.7121    2.5650 H         1 <0>         0.0596 
      36 H6        -1.8608    1.7839    2.8073 H         1 <0>         0.0574 
      37 H7        -1.4000    2.3166    1.1757 H         1 <0>         0.0563 
      38 H8         2.3171    0.1666    2.6116 H         1 <0>         0.1285 
      39 H9         3.1976   -0.5014    4.8628 H         1 <0>         0.1293 
      40 H10       -0.7557   -0.6310    6.4376 H         1 <0>         0.1227 
      41 H11       -1.6789   -0.0777    4.2074 H         1 <0>         0.1262 
      42 H12        1.3451    1.1293    8.3928 H         1 <0>         0.1329 
      43 H13        2.6734    0.3296    9.2614 H         1 <0>         0.1329 
      44 H14        4.5075   -0.9099    7.9940 H         1 <0>         0.1063 
      45 H15        4.6856    0.1514    9.4083 H         1 <0>         0.1054 
      46 H16        8.8397   -1.3789    7.6355 H         1 <0>         0.0686 
      47 H17        8.8473   -0.6227    6.0273 H         1 <0>         0.0794 
      48 H18        9.0195    0.3825    7.4827 H         1 <0>         0.0778 
      49 H19        5.2377   -0.5652    6.1510 H         1 <0>         0.1198 
      50 H20        6.3731    0.5602    5.3744 H         1 <0>         0.1233 
      51 H21        6.6883   -2.9188    6.4695 H         1 <0>         0.4142 
      52 H22        5.9620   -5.2222    5.4063 H         1 <0>         0.1473 
      53 H23        6.7758   -7.0418    3.9419 H         1 <0>         0.1337 
      54 H24        8.6645   -6.6377    2.3827 H         1 <0>         0.1349 
      55 H25        9.7495   -4.4114    2.3038 H         1 <0>         0.1385 
@<TRIPOS>BOND
       1        1        2 1        
       2        1       31 1        
       3        1       32 1        
       4        1       33 1        
       5        2        3 1        
       6        2        4 1        
       7        2       34 1        
       8        3       35 1        
       9        3       36 1        
      10        3       37 1        
      11        4        9 ar       
      12        4        5 ar       
      13        5        6 ar       
      14        5       38 1        
      15        6        7 ar       
      16        6       39 1        
      17        7        8 ar       
      18        7       10 1        
      19        8        9 ar       
      20        8       40 1        
      21        9       41 1        
      22       10       11 1        
      23       11       12 1        
      24       11       42 1        
      25       11       43 1        
      26       12       13 2        
      27       12       14 1        
      28       14       15 1        
      29       15       16 1        
      30       15       44 1        
      31       15       45 1        
      32       16       17 2        
      33       16       18 am       
      34       18       19 1        
      35       18       20 1        
      36       19       46 1        
      37       19       47 1        
      38       19       48 1        
      39       20       21 1        
      40       20       49 1        
      41       20       50 1        
      42       21       22 2        
      43       21       23 am       
      44       23       24 1        
      45       23       51 1        
      46       24       29 ar       
      47       24       25 ar       
      48       25       26 ar       
      49       25       52 1        
      50       26       27 ar       
      51       26       53 1        
      52       27       28 ar       
      53       27       54 1        
      54       28       29 ar       
      55       28       55 1        
      56       29       30 1        

