#        scan_R01_S0088_C0000_L00001_S0001_C0003_G0010_E0001.mol2
#        Mon Jun 19 14:43:22 2017
#        Descriptor:     10    16    35     3     1     4
#        Energy - RMSD - RMSD MassCentre:     -35.9520    999.9999    999.9999
#        Receptor:       1  Surface Point:    88  Conformer:     0
#        Ligand:         1  Surface Point:     1  Conformer:     3
#        BUDE Formal Charge: 0
#        ATOM Count: 27
#        Heavy ATOM Count: 17
@<TRIPOS>MOLECULE
pdb1gcz_ligA.pdb_scan_R01_S0088_C0000_L00001_S0001_C0003_G0010_E0001
27 28 1 0 0
SMALL
GASTEIGER
@<TRIPOS>ATOM
       1 C3         6.9827   -4.5893    1.4118 C.3       1 YZ9900      0.0513 
       2 C11        6.5061   -3.8900    0.1420 C.3       1 YZ9900      0.2089 
       3 O1         4.2412   -4.7325    1.1776 O.2       1 YZ9900     -0.2447 
       4 O2         5.4222   -3.0130    0.4599 O.3       1 YZ9900     -0.4453 
       5 C6        -0.2764   -2.8291    2.7457 C.ar      1 YZ9900      0.0063 
       6 C5         2.0355   -3.1987    1.8593 C.ar      1 YZ9900      0.0160 
       7 C4        -0.0633   -0.0908    2.2792 C.ar      1 YZ9900      0.0796 
       8 O3         2.1672   -0.3879    1.4158 O.2       1 YZ9900     -0.4208 
       9 C2         0.9008   -2.3103    2.1962 C.ar      1 YZ9900      0.0353 
      10 C1         1.0079   -0.9343    1.9618 C.ar      1 YZ9900      0.1519 
      11 C7         3.2325   -1.2282    1.1003 C.ar      1 YZ9900      0.3521 
      12 C12        4.3040   -3.5542    0.9886 C.2       1 YZ9900      0.3476 
      13 O4        -2.2649    0.2606    3.1234 O.3       1 YZ9900     -0.2865 
      14 O5         4.2384   -0.7294    0.6231 O.2       1 YZ9900     -0.2442 
      15 C10       -1.3447   -1.9810    3.0613 C.ar      1 YZ9900      0.0422 
      16 C9         3.1553   -2.6875    1.3342 C.ar      1 YZ9900      0.1515 
      17 C8        -1.2438   -0.6042    2.8293 C.ar      1 YZ9900      0.1988 
      18 H31        6.1668   -5.1750    1.8305 H         1 YZ9900      0.0000 
      19 H32        7.8160   -5.2464    1.1722 H         1 YZ9900      0.0000 
      20 H33        7.3043   -3.8442    2.1365 H         1 YZ9900      0.0000 
      21 H112       6.1710   -4.6333   -0.5782 H         1 YZ9900      0.0000 
      22 H113       7.3246   -3.3139   -0.2845 H         1 YZ9900      0.0000 
      23 H6        -0.3663   -3.8896    2.9293 H         1 YZ9900      0.0000 
      24 H5         1.9430   -4.2588    2.0439 H         1 YZ9900      0.0000 
      25 H4         0.0240    0.9702    2.0965 H         1 YZ9900      0.0000 
      26 HO4       -2.0166    1.1749    2.9151 H         1 YZ9900      0.0000 
      27 H10       -2.2424   -2.4067    3.4845 H         1 YZ9900      0.0000 
@<TRIPOS>BOND
       1       13       17 1        
       2        7       17 ar       
       3        7       10 ar       
       4        8       10 ar       
       5        8       11 ar       
       6       14       11 2        
       7       17       15 ar       
       8       10        9 ar       
       9       11       16 ar       
      10        2        4 1        
      11        2        1 1        
      12       15        5 ar       
      13        9        5 ar       
      14        9        6 ar       
      15       16        6 ar       
      16       16       12 1        
      17        4       12 1        
      18       12        3 2        
      19       18        1 1        
      20       19        1 1        
      21       20        1 1        
      22       21        2 1        
      23       22        2 1        
      24       23        5 1        
      25       24        6 1        
      26       25        7 1        
      27       26       13 1        
      28       27       15 1        
@<TRIPOS>SUBSTRUCTURE
 1 YZ9900 10 RESIDUE 4 A YZ9900 0 ROOT

