#        scan_R01_S0088_C0000_L00001_S0001_C0003_G0010_E0001.mol2
#        Mon Jun 19 14:15:17 2017
#        Descriptor:      8    15    34     3     1     5
#        Energy - RMSD - RMSD MassCentre:     -35.2851    999.9999    999.9999
#        Receptor:       1  Surface Point:    88  Conformer:     0
#        Ligand:         1  Surface Point:     1  Conformer:     3
#        BUDE Formal Charge: 0
#        ATOM Count: 27
#        Heavy ATOM Count: 17
@<TRIPOS>MOLECULE
pdb1gcz_ligA.pdb_scan_R01_S0088_C0000_L00001_S0001_C0003_G0010_E0001
27 28 1 0 0
SMALL
GASTEIGER
@<TRIPOS>ATOM
       1 C3         5.4864   -5.7386    0.4626 C.3       1 YZ9900      0.0513 
       2 C11        5.2274   -4.5306   -0.4330 C.3       1 YZ9900      0.2089 
       3 O1         2.8402   -4.9795    0.5730 O.2       1 YZ9900     -0.2447 
       4 O2         4.4934   -3.5449    0.2982 O.3       1 YZ9900     -0.4453 
       5 C6        -0.7780   -2.5139    3.2785 C.ar      1 YZ9900      0.0063 
       6 C5         1.2665   -3.2088    2.0118 C.ar      1 YZ9900      0.0160 
       7 C4         0.2948    0.0220    3.7026 C.ar      1 YZ9900      0.0796 
       8 O3         2.2863   -0.5928    2.4921 O.2       1 YZ9900     -0.4208 
       9 C2         0.4885   -2.2047    2.7714 C.ar      1 YZ9900      0.0353 
      10 C1         1.0277   -0.9305    2.9845 C.ar      1 YZ9900      0.1519 
      11 C7         3.0146   -1.5413    1.7778 C.ar      1 YZ9900      0.3521 
      12 C12        3.2748   -3.8840    0.7704 C.2       1 YZ9900      0.3476 
      13 O4        -1.6523    0.6831    4.9086 O.3       1 YZ9900     -0.2865 
      14 O5         4.1146   -1.2250    1.3554 O.2       1 YZ9900     -0.2442 
      15 C10       -1.5066   -1.5576    3.9959 C.ar      1 YZ9900      0.0422 
      16 C9         2.4769   -2.8982    1.5330 C.ar      1 YZ9900      0.1515 
      17 C8        -0.9731   -0.2816    4.2124 C.ar      1 YZ9900      0.1988 
      18 H31        4.5367   -6.1673    0.7760 H         1 YZ9900      0.0000 
      19 H32        6.0565   -6.4830   -0.0894 H         1 YZ9900      0.0000 
      20 H33        6.0504   -5.4255    1.3387 H         1 YZ9900      0.0000 
      21 H112       4.6513   -4.8398   -1.3025 H         1 YZ9900      0.0000 
      22 H113       6.1763   -4.1086   -0.7572 H         1 YZ9900      0.0000 
      23 H6        -1.2004   -3.4949    3.1180 H         1 YZ9900      0.0000 
      24 H5         0.8418   -4.1890    1.8528 H         1 YZ9900      0.0000 
      25 H4         0.7149    1.0037    3.8644 H         1 YZ9900      0.0000 
      26 HO4       -1.1279    1.4964    4.9768 H         1 YZ9900      0.0000 
      27 H10       -2.4822   -1.8216    4.3767 H         1 YZ9900      0.0000 
@<TRIPOS>BOND
       1       13       17 1        
       2        7       17 ar       
       3        7       10 ar       
       4        8       10 ar       
       5        8       11 ar       
       6       14       11 2        
       7       17       15 ar       
       8       10        9 ar       
       9       11       16 ar       
      10        2        4 1        
      11        2        1 1        
      12       15        5 ar       
      13        9        5 ar       
      14        9        6 ar       
      15       16        6 ar       
      16       16       12 1        
      17        4       12 1        
      18       12        3 2        
      19       18        1 1        
      20       19        1 1        
      21       20        1 1        
      22       21        2 1        
      23       22        2 1        
      24       23        5 1        
      25       24        6 1        
      26       25        7 1        
      27       26       13 1        
      28       27       15 1        
@<TRIPOS>SUBSTRUCTURE
 1 YZ9900 10 RESIDUE 4 A YZ9900 0 ROOT

