#        scan_R01_S0089_C0000_L00001_S0001_C0000_G0010_E0001.mol2
#        Mon Jun 19 14:43:23 2017
#        Descriptor:     12     8    25     2     2     5
#        Energy - RMSD - RMSD MassCentre:     -36.9503    999.9999    999.9999
#        Receptor:       1  Surface Point:    89  Conformer:     0
#        Ligand:         1  Surface Point:     1  Conformer:     0
#        BUDE Formal Charge: 0
#        ATOM Count: 27
#        Heavy ATOM Count: 17
@<TRIPOS>MOLECULE
pdb1gcz_ligA.pdb_scan_R01_S0089_C0000_L00001_S0001_C0000_G0010_E0001
27 28 1 0 0
SMALL
GASTEIGER
@<TRIPOS>ATOM
       1 C3        -0.5825   -4.3669    5.5741 C.3       1 YZ9900      0.0513 
       2 C11        0.3624   -3.6445    4.6570 C.3       1 YZ9900      0.2089 
       3 O1        -2.2466   -2.6372    2.6862 O.2       1 YZ9900     -0.2447 
       4 O2        -0.2630   -3.4959    3.3200 O.3       1 YZ9900     -0.4453 
       5 C6        -1.4452    2.5264    3.1800 C.ar      1 YZ9900      0.0063 
       6 C5        -1.3483    0.0171    2.9473 C.ar      1 YZ9900      0.0160 
       7 C4         1.3828    2.6733    2.3984 C.ar      1 YZ9900      0.0796 
       8 O3         1.3622    0.2751    2.2057 O.2       1 YZ9900     -0.4208 
       9 C2        -0.7007    1.3631    2.8716 C.ar      1 YZ9900      0.0353 
      10 C1         0.6739    1.4549    2.4927 C.ar      1 YZ9900      0.1519 
      11 C7         0.8357   -0.9216    2.3340 C.ar      1 YZ9900      0.3521 
      12 C12       -1.0863   -2.4815    2.9175 C.2       1 YZ9900      0.3476 
      13 O4         1.1560    5.0346    2.6726 O.3       1 YZ9900     -0.2865 
      14 O5         1.5058   -1.8507    2.1185 O.2       1 YZ9900     -0.2442 
      15 C10       -0.7753    3.7820    3.1024 C.ar      1 YZ9900      0.0422 
      16 C9        -0.5653   -1.0866    2.7428 C.ar      1 YZ9900      0.1515 
      17 C8         0.5856    3.8185    2.7231 C.ar      1 YZ9900      0.1988 
      18 H31       -1.5165   -3.8095    5.6468 H         1 YZ9900      0.0000 
      19 H32       -0.7837   -5.3621    5.1776 H         1 YZ9900      0.0000 
      20 H33       -0.1332   -4.4539    6.5633 H         1 YZ9900      0.0000 
      21 H112       1.2864   -4.2155    4.5644 H         1 YZ9900      0.0000 
      22 H113       0.5838   -2.6588    5.0662 H         1 YZ9900      0.0000 
      23 H6        -2.4852    2.4649    3.4644 H         1 YZ9900      0.0000 
      24 H5        -2.4030   -0.0811    3.1573 H         1 YZ9900      0.0000 
      25 H4         2.4218    2.7351    2.1103 H         1 YZ9900      0.0000 
      26 HO4        1.2715    5.3716    3.5640 H         1 YZ9900      0.0000 
      27 H10       -1.3024    4.6965    3.3313 H         1 YZ9900      0.0000 
@<TRIPOS>BOND
       1       13       17 1        
       2        7       17 ar       
       3        7       10 ar       
       4        8       10 ar       
       5        8       11 ar       
       6       14       11 2        
       7       17       15 ar       
       8       10        9 ar       
       9       11       16 ar       
      10        2        4 1        
      11        2        1 1        
      12       15        5 ar       
      13        9        5 ar       
      14        9        6 ar       
      15       16        6 ar       
      16       16       12 1        
      17        4       12 1        
      18       12        3 2        
      19       18        1 1        
      20       19        1 1        
      21       20        1 1        
      22       21        2 1        
      23       22        2 1        
      24       23        5 1        
      25       24        6 1        
      26       25        7 1        
      27       26       13 1        
      28       27       15 1        
@<TRIPOS>SUBSTRUCTURE
 1 YZ9900 10 RESIDUE 4 A YZ9900 0 ROOT

