#        scan_R01_S0090_C0000_L00001_S0001_C0000_G0010_E0001.mol2
#        Mon Jun 19 14:43:24 2017
#        Descriptor:     10    28     3     1     2     4
#        Energy - RMSD - RMSD MassCentre:     -41.5760    999.9999    999.9999
#        Receptor:       1  Surface Point:    90  Conformer:     0
#        Ligand:         1  Surface Point:     1  Conformer:     0
#        BUDE Formal Charge: 0
#        ATOM Count: 27
#        Heavy ATOM Count: 17
@<TRIPOS>MOLECULE
pdb1gcz_ligA.pdb_scan_R01_S0090_C0000_L00001_S0001_C0000_G0010_E0001
27 28 1 0 0
SMALL
GASTEIGER
@<TRIPOS>ATOM
       1 C3        -3.6165   -1.9810   -1.9070 C.3       1 YZ9900      0.0513 
       2 C11       -3.7449   -1.0328   -0.7492 C.3       1 YZ9900      0.2089 
       3 O1        -2.0908   -3.2260    1.2904 O.2       1 YZ9900     -0.2447 
       4 O2        -3.6472   -1.7898    0.5229 O.3       1 YZ9900     -0.4453 
       5 C6         1.8566   -0.0185    2.5860 C.ar      1 YZ9900      0.0063 
       6 C5        -0.3090   -1.1588    1.9776 C.ar      1 YZ9900      0.0160 
       7 C4         0.3271    2.3037    3.5337 C.ar      1 YZ9900      0.0796 
       8 O3        -1.6769    1.1233    2.9177 O.2       1 YZ9900     -0.4208 
       9 C2         0.4426    0.0088    2.5331 C.ar      1 YZ9900      0.0353 
      10 C1        -0.2838    1.1473    2.9995 C.ar      1 YZ9900      0.1519 
      11 C7        -2.3547    0.1407    2.3692 C.ar      1 YZ9900      0.3521 
      12 C12       -2.4980   -2.1086    1.1912 C.2       1 YZ9900      0.3476 
      13 O4         2.4486    3.2726    4.0464 O.3       1 YZ9900     -0.2865 
      14 O5        -3.5146    0.2338    2.3023 O.2       1 YZ9900     -0.2442 
      15 C10        2.5222    1.1256    3.1145 C.ar      1 YZ9900      0.0422 
      16 C9        -1.6670   -1.0482    1.8488 C.ar      1 YZ9900      0.1515 
      17 C8         1.7573    2.2265    3.5623 C.ar      1 YZ9900      0.1988 
      18 H31       -2.6627   -2.5049   -1.8442 H         1 YZ9900      0.0000 
      19 H32       -4.4311   -2.7046   -1.8757 H         1 YZ9900      0.0000 
      20 H33       -3.6632   -1.4217   -2.8414 H         1 YZ9900      0.0000 
      21 H112      -4.7098   -0.5281   -0.7984 H         1 YZ9900      0.0000 
      22 H113      -2.9453   -0.2935   -0.7945 H         1 YZ9900      0.0000 
      23 H6         2.4121   -0.8766    2.2379 H         1 YZ9900      0.0000 
      24 H5         0.2049   -2.0629    1.6864 H         1 YZ9900      0.0000 
      25 H4        -0.2287    3.1604    3.8853 H         1 YZ9900      0.0000 
      26 HO4        2.8951    3.7229    3.3257 H         1 YZ9900      0.0000 
      27 H10        3.6004    1.1510    3.1723 H         1 YZ9900      0.0000 
@<TRIPOS>BOND
       1       13       17 1        
       2        7       17 ar       
       3        7       10 ar       
       4        8       10 ar       
       5        8       11 ar       
       6       14       11 2        
       7       17       15 ar       
       8       10        9 ar       
       9       11       16 ar       
      10        2        4 1        
      11        2        1 1        
      12       15        5 ar       
      13        9        5 ar       
      14        9        6 ar       
      15       16        6 ar       
      16       16       12 1        
      17        4       12 1        
      18       12        3 2        
      19       18        1 1        
      20       19        1 1        
      21       20        1 1        
      22       21        2 1        
      23       22        2 1        
      24       23        5 1        
      25       24        6 1        
      26       25        7 1        
      27       26       13 1        
      28       27       15 1        
@<TRIPOS>SUBSTRUCTURE
 1 YZ9900 10 RESIDUE 4 A YZ9900 0 ROOT

