#        1GCZ_R01_S0001_C0000_L00005_S0001_C0016_G0010_E0001.mol2
#        Tue Jun  6 09:55:42 2017
#        Descriptor:     26     5    27     9     9    11
#        Energy - RMSD - RMSD MassCentre:     -74.1459    999.9999    999.9999
#        Receptor:       1  Surface Point:     1  Conformer:     0
#        Ligand:         5  Surface Point:     1  Conformer:    16
#        BUDE Formal Charge: 0
#        ATOM Count: 55
#        Heavy ATOM Count: 30
@<TRIPOS>MOLECULE
ZINC61464195_1GCZ_R01_S0001_C0000_L00005_S0001_C0016_G0010_E0001
 55 56 0 0 0
SMALL
USER_CHARGES
@<TRIPOS>ATOM
       1 C1         1.2841    0.2917   -4.3138 C.3       1 <0>        -0.1456 
       2 C2         0.3674    1.2831   -3.6029 C.3       1 <0>        -0.0579 
       3 C3        -0.9949    1.3006   -4.2902 C.3       1 <0>        -0.1456 
       4 C4         0.1978    0.8662   -2.1616 C.ar      1 <0>        -0.0771 
       5 C5         0.6170    1.7497   -1.1600 C.ar      1 <0>        -0.0943 
       6 C6         0.3838    1.4390    0.1849 C.ar      1 <0>        -0.0923 
       7 C7        -0.2718    0.2532    0.5369 C.ar      1 <0>        -0.1041 
       8 C8        -0.6477   -0.6608   -0.4546 C.ar      1 <0>        -0.1315 
       9 C9        -0.3803   -0.3586   -1.7951 C.ar      1 <0>        -0.0969 
      10 S1        -0.6165   -0.0878    2.2393 S.3       1 <0>        -0.0341 
      11 C10       -2.2491    0.5891    2.6739 C.3       1 <0>        -0.1267 
      12 C11       -2.5432    0.2982    4.1262 C.2       1 <0>         0.4864 
      13 O1        -3.2720   -0.6018    4.4204 O.2       1 <0>        -0.4815 
      14 O2        -1.9821    1.0554    5.0927 O.3       1 <0>        -0.3231 
      15 C12       -1.1168    2.1212    4.6924 C.3       1 <0>         0.0526 
      16 C13       -0.6004    2.8364    5.9180 C.2       1 <0>         0.5250 
      17 O3        -0.8106    4.0398    6.0615 O.2       1 <0>        -0.5082 
      18 N1         0.0815    2.1660    6.8422 N.am      1 <0>        -0.5981 
      19 C14        0.5835    2.8638    8.0347 C.3       1 <0>         0.0731 
      20 C15        0.3326    0.7278    6.6709 C.3       1 <0>         0.1010 
      21 C16        1.7587    0.4171    7.0578 C.2       1 <0>         0.4997 
      22 O4         1.9951   -0.4823    7.8628 O.2       1 <0>        -0.5061 
      23 N2         2.7585    1.1163    6.5281 N.am      1 <0>        -0.6702 
      24 C17        4.0949    0.8252    6.8907 C.ar      1 <0>         0.1553 
      25 C18        5.0925    0.7801    5.9097 C.ar      1 <0>        -0.1106 
      26 C19        6.4146    0.4988    6.2741 C.ar      1 <0>        -0.0959 
      27 C20        6.7398    0.2549    7.6113 C.ar      1 <0>        -0.1208 
      28 C21        5.7405    0.2865    8.5914 C.ar      1 <0>        -0.0919 
      29 C22        4.4194    0.5755    8.2295 C.ar      1 <0>        -0.0639 
      30 Cl1        3.1737    0.6117    9.4440 Cl        1 <0>        -0.0632 
      31 H1         0.8373   -0.6998   -4.2842 H         1 <0>         0.0596 
      32 H2         1.4171    0.5996   -5.3488 H         1 <0>         0.0563 
      33 H3         2.2505    0.2698   -3.8143 H         1 <0>         0.0575 
      34 H4         0.8072    2.2775   -3.6426 H         1 <0>         0.0784 
      35 H5        -1.6435    2.0168   -3.7902 H         1 <0>         0.0596 
      36 H6        -1.4397    0.3091   -4.2373 H         1 <0>         0.0574 
      37 H7        -0.8710    1.5881   -5.3322 H         1 <0>         0.0563 
      38 H8         1.1060    2.6803   -1.4079 H         1 <0>         0.1285 
      39 H9         0.6838    2.0900    0.9928 H         1 <0>         0.1293 
      40 H10       -1.1357   -1.5801   -0.1666 H         1 <0>         0.1227 
      41 H11       -0.6446   -1.0906   -2.5438 H         1 <0>         0.1262 
      42 H12       -2.2509    1.6651    2.5127 H         1 <0>         0.1329 
      43 H13       -3.0117    0.1270    2.0505 H         1 <0>         0.1329 
      44 H14       -1.6682    2.8224    4.0695 H         1 <0>         0.1063 
      45 H15       -0.2785    1.7165    4.1293 H         1 <0>         0.1054 
      46 H16       -0.2544    3.2801    8.5902 H         1 <0>         0.0686 
      47 H17        1.1238    2.1606    8.6650 H         1 <0>         0.0794 
      48 H18        1.2519    3.6665    7.7300 H         1 <0>         0.0778 
      49 H19       -0.3473    0.1635    7.3056 H         1 <0>         0.1198 
      50 H20        0.1705    0.4535    5.6306 H         1 <0>         0.1233 
      51 H21        2.5632    1.8547    5.8671 H         1 <0>         0.4142 
      52 H22        4.8475    0.9673    4.8746 H         1 <0>         0.1473 
      53 H23        7.1842    0.4719    5.5167 H         1 <0>         0.1337 
      54 H24        7.7605    0.0418    7.8925 H         1 <0>         0.1349 
      55 H25        5.9890    0.0919    9.6242 H         1 <0>         0.1385 
@<TRIPOS>BOND
       1        1        2 1        
       2        1       31 1        
       3        1       32 1        
       4        1       33 1        
       5        2        3 1        
       6        2        4 1        
       7        2       34 1        
       8        3       35 1        
       9        3       36 1        
      10        3       37 1        
      11        4        9 ar       
      12        4        5 ar       
      13        5        6 ar       
      14        5       38 1        
      15        6        7 ar       
      16        6       39 1        
      17        7        8 ar       
      18        7       10 1        
      19        8        9 ar       
      20        8       40 1        
      21        9       41 1        
      22       10       11 1        
      23       11       12 1        
      24       11       42 1        
      25       11       43 1        
      26       12       13 2        
      27       12       14 1        
      28       14       15 1        
      29       15       16 1        
      30       15       44 1        
      31       15       45 1        
      32       16       17 2        
      33       16       18 am       
      34       18       19 1        
      35       18       20 1        
      36       19       46 1        
      37       19       47 1        
      38       19       48 1        
      39       20       21 1        
      40       20       49 1        
      41       20       50 1        
      42       21       22 2        
      43       21       23 am       
      44       23       24 1        
      45       23       51 1        
      46       24       29 ar       
      47       24       25 ar       
      48       25       26 ar       
      49       25       52 1        
      50       26       27 ar       
      51       26       53 1        
      52       27       28 ar       
      53       27       54 1        
      54       28       29 ar       
      55       28       55 1        
      56       29       30 1        

