#        scan_R01_S0090_C0000_L00001_S0001_C0002_G0010_E0001.mol2
#        Mon Jun 19 14:43:25 2017
#        Descriptor:      2    34     6     1     1     3
#        Energy - RMSD - RMSD MassCentre:     -39.8651    999.9999    999.9999
#        Receptor:       1  Surface Point:    90  Conformer:     0
#        Ligand:         1  Surface Point:     1  Conformer:     2
#        BUDE Formal Charge: 0
#        ATOM Count: 27
#        Heavy ATOM Count: 17
@<TRIPOS>MOLECULE
pdb1gcz_ligA.pdb_scan_R01_S0090_C0000_L00001_S0001_C0002_G0010_E0001
27 28 1 0 0
SMALL
GASTEIGER
@<TRIPOS>ATOM
       1 C3        -4.1016   -6.8299    4.3222 C.3       1 YZ9900      0.0513 
       2 C11       -3.0810   -5.8128    4.8246 C.3       1 YZ9900      0.2089 
       3 O1        -1.3902   -3.8217    5.1229 O.2       1 YZ9900     -0.2447 
       4 O2        -2.8042   -4.8655    3.7897 O.3       1 YZ9900     -0.4453 
       5 C6         0.4918    0.1340    2.4210 C.ar      1 YZ9900      0.0063 
       6 C5        -0.7227   -1.8930    3.2477 C.ar      1 YZ9900      0.0160 
       7 C4        -0.7730   -0.0649   -0.0533 C.ar      1 YZ9900      0.0796 
       8 O3        -1.9694   -2.0209    0.6896 O.2       1 YZ9900     -0.4208 
       9 C2        -0.4206   -0.9012    2.1916 C.ar      1 YZ9900      0.0353 
      10 C1        -1.0562   -1.0012    0.9482 C.ar      1 YZ9900      0.1519 
      11 C7        -2.2505   -2.9519    1.6869 C.ar      1 YZ9900      0.3521 
      12 C12       -1.9174   -3.8820    4.0522 C.2       1 YZ9900      0.3476 
      13 O4         0.3838    1.8654   -0.8399 O.3       1 YZ9900     -0.2865 
      14 O5        -3.0532   -3.8367    1.4397 O.2       1 YZ9900     -0.2442 
      15 C10        0.7714    1.0677    1.4159 C.ar      1 YZ9900      0.0422 
      16 C9        -1.5979   -2.8778    3.0131 C.ar      1 YZ9900      0.1515 
      17 C8         0.1391    0.9732    0.1705 C.ar      1 YZ9900      0.1988 
      18 H31       -3.6942   -7.3569    3.4619 H         1 YZ9900      0.0000 
      19 H32       -4.3222   -7.5427    5.1140 H         1 YZ9900      0.0000 
      20 H33       -5.0148   -6.3139    4.0332 H         1 YZ9900      0.0000 
      21 H112      -2.1622   -6.3260    5.1008 H         1 YZ9900      0.0000 
      22 H113      -3.4822   -5.2938    5.6926 H         1 YZ9900      0.0000 
      23 H6         0.9860    0.2175    3.3777 H         1 YZ9900      0.0000 
      24 H5        -0.2271   -1.8072    4.2034 H         1 YZ9900      0.0000 
      25 H4        -1.2659   -0.1462   -1.0109 H         1 YZ9900      0.0000 
      26 HO4       -0.1252    1.6390   -1.6340 H         1 YZ9900      0.0000 
      27 H10        1.4798    1.8573    1.6186 H         1 YZ9900      0.0000 
@<TRIPOS>BOND
       1       13       17 1        
       2        7       17 ar       
       3        7       10 ar       
       4        8       10 ar       
       5        8       11 ar       
       6       14       11 2        
       7       17       15 ar       
       8       10        9 ar       
       9       11       16 ar       
      10        2        4 1        
      11        2        1 1        
      12       15        5 ar       
      13        9        5 ar       
      14        9        6 ar       
      15       16        6 ar       
      16       16       12 1        
      17        4       12 1        
      18       12        3 2        
      19       18        1 1        
      20       19        1 1        
      21       20        1 1        
      22       21        2 1        
      23       22        2 1        
      24       23        5 1        
      25       24        6 1        
      26       25        7 1        
      27       26       13 1        
      28       27       15 1        
@<TRIPOS>SUBSTRUCTURE
 1 YZ9900 10 RESIDUE 4 A YZ9900 0 ROOT

