#        scan_R01_S0090_C0000_L00001_S0001_C0002_G0010_E0001.mol2
#        Mon Jun 19 14:15:20 2017
#        Descriptor:     25    16    23     2     3     5
#        Energy - RMSD - RMSD MassCentre:     -39.5314    999.9999    999.9999
#        Receptor:       1  Surface Point:    90  Conformer:     0
#        Ligand:         1  Surface Point:     1  Conformer:     2
#        BUDE Formal Charge: 0
#        ATOM Count: 27
#        Heavy ATOM Count: 17
@<TRIPOS>MOLECULE
pdb1gcz_ligA.pdb_scan_R01_S0090_C0000_L00001_S0001_C0002_G0010_E0001
27 28 1 0 0
SMALL
GASTEIGER
@<TRIPOS>ATOM
       1 C3        -3.8958   -4.9022    0.8478 C.3       1 YZ9900      0.0513 
       2 C11       -2.5397   -4.7910    1.5385 C.3       1 YZ9900      0.2089 
       3 O1        -0.3166   -3.9918    2.6923 O.2       1 YZ9900     -0.2447 
       4 O2        -2.2234   -3.4120    1.7467 O.3       1 YZ9900     -0.4453 
       5 C6         2.0245    0.3921    4.0308 C.ar      1 YZ9900      0.0063 
       6 C5         0.4734   -1.3809    3.1834 C.ar      1 YZ9900      0.0160 
       7 C4         0.2624    2.3868    3.2079 C.ar      1 YZ9900      0.0796 
       8 O3        -1.2688    0.7226    2.3743 O.2       1 YZ9900     -0.4208 
       9 C2         0.8218    0.0396    3.4095 C.ar      1 YZ9900      0.0353 
      10 C1        -0.0637    1.0420    2.9959 C.ar      1 YZ9900      0.1519 
      11 C7        -1.5922   -0.6159    2.1639 C.ar      1 YZ9900      0.3521 
      12 C12       -1.0527   -3.1149    2.3500 C.2       1 YZ9900      0.3476 
      13 O4         1.7398    4.0747    4.0150 O.3       1 YZ9900     -0.2865 
      14 O5        -2.6524   -0.8738    1.6180 O.2       1 YZ9900     -0.2442 
      15 C10        2.3456    1.7385    4.2404 C.ar      1 YZ9900      0.0422 
      16 C9        -0.6809   -1.7023    2.5876 C.ar      1 YZ9900      0.1515 
      17 C8         1.4644    2.7456    3.8292 C.ar      1 YZ9900      0.1988 
      18 H31       -3.8529   -4.4009   -0.1170 H         1 YZ9900      0.0000 
      19 H32       -4.1424   -5.9516    0.7014 H         1 YZ9900      0.0000 
      20 H33       -4.6572   -4.4331    1.4674 H         1 YZ9900      0.0000 
      21 H112      -1.7750   -5.2473    0.9134 H         1 YZ9900      0.0000 
      22 H113      -2.5775   -5.3026    2.4979 H         1 YZ9900      0.0000 
      23 H6         2.7125   -0.3757    4.3525 H         1 YZ9900      0.0000 
      24 H5         1.1632   -2.1467    3.5062 H         1 YZ9900      0.0000 
      25 H4        -0.4240    3.1566    2.8871 H         1 YZ9900      0.0000 
      26 HO4        1.0304    4.6299    3.6552 H         1 YZ9900      0.0000 
      27 H10        3.2805    1.9839    4.7224 H         1 YZ9900      0.0000 
@<TRIPOS>BOND
       1       13       17 1        
       2        7       17 ar       
       3        7       10 ar       
       4        8       10 ar       
       5        8       11 ar       
       6       14       11 2        
       7       17       15 ar       
       8       10        9 ar       
       9       11       16 ar       
      10        2        4 1        
      11        2        1 1        
      12       15        5 ar       
      13        9        5 ar       
      14        9        6 ar       
      15       16        6 ar       
      16       16       12 1        
      17        4       12 1        
      18       12        3 2        
      19       18        1 1        
      20       19        1 1        
      21       20        1 1        
      22       21        2 1        
      23       22        2 1        
      24       23        5 1        
      25       24        6 1        
      26       25        7 1        
      27       26       13 1        
      28       27       15 1        
@<TRIPOS>SUBSTRUCTURE
 1 YZ9900 10 RESIDUE 4 A YZ9900 0 ROOT

