#        scan_R01_S0090_C0000_L00001_S0001_C0003_G0010_E0001.mol2
#        Mon Jun 19 14:43:26 2017
#        Descriptor:     21     3     2     2     1     4
#        Energy - RMSD - RMSD MassCentre:     -40.5005    999.9999    999.9999
#        Receptor:       1  Surface Point:    90  Conformer:     0
#        Ligand:         1  Surface Point:     1  Conformer:     3
#        BUDE Formal Charge: 0
#        ATOM Count: 27
#        Heavy ATOM Count: 17
@<TRIPOS>MOLECULE
pdb1gcz_ligA.pdb_scan_R01_S0090_C0000_L00001_S0001_C0003_G0010_E0001
27 28 1 0 0
SMALL
GASTEIGER
@<TRIPOS>ATOM
       1 C3        -5.1437   -0.2882   -2.6965 C.3       1 YZ9900      0.0513 
       2 C11       -4.5693   -1.6950   -2.5563 C.3       1 YZ9900      0.2089 
       3 O1        -2.4159   -0.2057   -2.3181 O.2       1 YZ9900     -0.2447 
       4 O2        -3.7102   -1.7465   -1.4143 O.3       1 YZ9900     -0.4453 
       5 C6         1.3995    0.6251    1.0350 C.ar      1 YZ9900      0.0063 
       6 C5        -0.6340   -0.1610   -0.1956 C.ar      1 YZ9900      0.0160 
       7 C4         0.8408   -1.1025    3.1480 C.ar      1 YZ9900      0.0796 
       8 O3        -1.1291   -1.8963    2.0085 O.2       1 YZ9900     -0.4208 
       9 C2         0.2694   -0.1972    0.9761 C.ar      1 YZ9900      0.0353 
      10 C1        -0.0114   -1.0653    2.0379 C.ar      1 YZ9900      0.1519 
      11 C7        -1.9763   -1.8585    0.9035 C.ar      1 YZ9900      0.3521 
      12 C12       -2.6303   -0.9365   -1.3972 C.2       1 YZ9900      0.3476 
      13 O4         2.7773   -0.3536    4.3193 O.3       1 YZ9900     -0.2865 
      14 O5        -2.9494   -2.5943    0.8978 O.2       1 YZ9900     -0.2442 
      15 C10        2.2484    0.5840    2.1476 C.ar      1 YZ9900      0.0422 
      16 C9        -1.7113   -0.9537   -0.2373 C.ar      1 YZ9900      0.1515 
      17 C8         1.9732   -0.2819    3.2125 C.ar      1 YZ9900      0.1988 
      18 H31       -4.3313    0.4224   -2.8344 H         1 YZ9900      0.0000 
      19 H32       -5.8078   -0.2524   -3.5575 H         1 YZ9900      0.0000 
      20 H33       -5.7006   -0.0333   -1.7974 H         1 YZ9900      0.0000 
      21 H112      -4.0003   -1.9457   -3.4490 H         1 YZ9900      0.0000 
      22 H113      -5.3814   -2.4080   -2.4308 H         1 YZ9900      0.0000 
      23 H6         1.6225    1.2973    0.2197 H         1 YZ9900      0.0000 
      24 H5        -0.4086    0.5122   -1.0095 H         1 YZ9900      0.0000 
      25 H4         0.6200   -1.7739    3.9647 H         1 YZ9900      0.0000 
      26 HO4        2.4278   -0.9906    4.9620 H         1 YZ9900      0.0000 
      27 H10        3.1143    1.2291    2.1682 H         1 YZ9900      0.0000 
@<TRIPOS>BOND
       1       13       17 1        
       2        7       17 ar       
       3        7       10 ar       
       4        8       10 ar       
       5        8       11 ar       
       6       14       11 2        
       7       17       15 ar       
       8       10        9 ar       
       9       11       16 ar       
      10        2        4 1        
      11        2        1 1        
      12       15        5 ar       
      13        9        5 ar       
      14        9        6 ar       
      15       16        6 ar       
      16       16       12 1        
      17        4       12 1        
      18       12        3 2        
      19       18        1 1        
      20       19        1 1        
      21       20        1 1        
      22       21        2 1        
      23       22        2 1        
      24       23        5 1        
      25       24        6 1        
      26       25        7 1        
      27       26       13 1        
      28       27       15 1        
@<TRIPOS>SUBSTRUCTURE
 1 YZ9900 10 RESIDUE 4 A YZ9900 0 ROOT

