#        scan_R01_S0091_C0000_L00001_S0001_C0000_G0010_E0001.mol2
#        Mon Jun 19 14:43:26 2017
#        Descriptor:     17    27    10     1     3     5
#        Energy - RMSD - RMSD MassCentre:     -44.8562    999.9999    999.9999
#        Receptor:       1  Surface Point:    91  Conformer:     0
#        Ligand:         1  Surface Point:     1  Conformer:     0
#        BUDE Formal Charge: 0
#        ATOM Count: 27
#        Heavy ATOM Count: 17
@<TRIPOS>MOLECULE
pdb1gcz_ligA.pdb_scan_R01_S0091_C0000_L00001_S0001_C0000_G0010_E0001
27 28 1 0 0
SMALL
GASTEIGER
@<TRIPOS>ATOM
       1 C3        -4.1613   -1.2954   -0.2822 C.3       1 YZ9900      0.0513 
       2 C11       -4.1203   -0.2496    0.7950 C.3       1 YZ9900      0.2089 
       3 O1        -2.1639   -2.2682    2.7453 O.2       1 YZ9900     -0.2447 
       4 O2        -3.8274   -0.8938    2.0988 O.3       1 YZ9900     -0.4453 
       5 C6         1.9123    1.0137    3.1491 C.ar      1 YZ9900      0.0063 
       6 C5        -0.3126   -0.1609    2.9746 C.ar      1 YZ9900      0.0160 
       7 C4         0.5274    3.4194    4.1108 C.ar      1 YZ9900      0.0796 
       8 O3        -1.5386    2.2032    3.9080 O.2       1 YZ9900     -0.4208 
       9 C2         0.5063    1.0455    3.3073 C.ar      1 YZ9900      0.0353 
      10 C1        -0.1492    2.2250    3.7770 C.ar      1 YZ9900      0.1519 
      11 C7        -2.2846    1.1812    3.5551 C.ar      1 YZ9900      0.3521 
      12 C12       -2.5887   -1.1610    2.6118 C.2       1 YZ9900      0.3476 
      13 O4         2.6955    4.4152    4.2126 O.3       1 YZ9900     -0.2865 
      14 O5        -3.4421    1.2757    3.6556 O.2       1 YZ9900     -0.2442 
      15 C10        2.6423    2.1949    3.4702 C.ar      1 YZ9900      0.0422 
      16 C9        -1.6752   -0.0529    3.0424 C.ar      1 YZ9900      0.1515 
      17 C8         1.9462    3.3355    3.9306 C.ar      1 YZ9900      0.1988 
      18 H31       -3.2054   -1.8183   -0.3183 H         1 YZ9900      0.0000 
      19 H32       -4.9570   -2.0083   -0.0660 H         1 YZ9900      0.0000 
      20 H33       -4.3516   -0.8191   -1.2439 H         1 YZ9900      0.0000 
      21 H112      -5.0849    0.2554    0.8479 H         1 YZ9900      0.0000 
      22 H113      -3.3414    0.4778    0.5660 H         1 YZ9900      0.0000 
      23 H6         2.4147    0.1249    2.7973 H         1 YZ9900      0.0000 
      24 H5         0.1576   -1.0902    2.6891 H         1 YZ9900      0.0000 
      25 H4         0.0253    4.3070    4.4663 H         1 YZ9900      0.0000 
      26 HO4        3.0256    4.7982    3.3966 H         1 YZ9900      0.0000 
      27 H10        3.7167    2.2182    3.3627 H         1 YZ9900      0.0000 
@<TRIPOS>BOND
       1       13       17 1        
       2        7       17 ar       
       3        7       10 ar       
       4        8       10 ar       
       5        8       11 ar       
       6       14       11 2        
       7       17       15 ar       
       8       10        9 ar       
       9       11       16 ar       
      10        2        4 1        
      11        2        1 1        
      12       15        5 ar       
      13        9        5 ar       
      14        9        6 ar       
      15       16        6 ar       
      16       16       12 1        
      17        4       12 1        
      18       12        3 2        
      19       18        1 1        
      20       19        1 1        
      21       20        1 1        
      22       21        2 1        
      23       22        2 1        
      24       23        5 1        
      25       24        6 1        
      26       25        7 1        
      27       26       13 1        
      28       27       15 1        
@<TRIPOS>SUBSTRUCTURE
 1 YZ9900 10 RESIDUE 4 A YZ9900 0 ROOT

