#        scan_R01_S0091_C0000_L00001_S0001_C0002_G0010_E0001.mol2
#        Mon Jun 19 14:43:27 2017
#        Descriptor:     13     1    36     1     3     5
#        Energy - RMSD - RMSD MassCentre:     -44.7734    999.9999    999.9999
#        Receptor:       1  Surface Point:    91  Conformer:     0
#        Ligand:         1  Surface Point:     1  Conformer:     2
#        BUDE Formal Charge: 0
#        ATOM Count: 27
#        Heavy ATOM Count: 17
@<TRIPOS>MOLECULE
pdb1gcz_ligA.pdb_scan_R01_S0091_C0000_L00001_S0001_C0002_G0010_E0001
27 28 1 0 0
SMALL
GASTEIGER
@<TRIPOS>ATOM
       1 C3        -8.1377    0.2657    1.2228 C.3       1 YZ9900      0.0513 
       2 C11       -6.9020   -0.4966    0.7533 C.3       1 YZ9900      0.2089 
       3 O1        -4.4791   -1.4256    0.3307 O.2       1 YZ9900     -0.2447 
       4 O2        -5.7426    0.0291    1.4048 O.3       1 YZ9900     -0.4453 
       5 C6         0.3532   -0.5622    1.8779 C.ar      1 YZ9900      0.0063 
       6 C5        -2.1199   -0.5459    1.4892 C.ar      1 YZ9900      0.0160 
       7 C4         0.1250    1.5407    3.6910 C.ar      1 YZ9900      0.0796 
       8 O3        -2.2610    1.6015    3.3556 O.2       1 YZ9900     -0.4208 
       9 C2        -0.9061   -0.0181    2.1515 C.ar      1 YZ9900      0.0353 
      10 C1        -1.0209    1.0386    3.0625 C.ar      1 YZ9900      0.1519 
      11 C7        -3.4004    1.1011    2.7297 C.ar      1 YZ9900      0.3521 
      12 C12       -4.5464   -0.5244    1.1126 C.2       1 YZ9900      0.3476 
      13 O4         2.4800    1.5247    4.0607 O.3       1 YZ9900     -0.2865 
      14 O5        -4.4765    1.6082    3.0005 O.2       1 YZ9900     -0.2442 
      15 C10        1.4959   -0.0563    2.5092 C.ar      1 YZ9900      0.0422 
      16 C9        -3.3177   -0.0149    1.7612 C.ar      1 YZ9900      0.1515 
      17 C8         1.3878    1.0002    3.4212 C.ar      1 YZ9900      0.1988 
      18 H31       -8.0344    1.3175    0.9636 H         1 YZ9900      0.0000 
      19 H32       -9.0213   -0.1430    0.7371 H         1 YZ9900      0.0000 
      20 H33       -8.2369    0.1654    2.3015 H         1 YZ9900      0.0000 
      21 H112      -6.7938   -0.3854   -0.3236 H         1 YZ9900      0.0000 
      22 H113      -7.0096   -1.5506    1.0007 H         1 YZ9900      0.0000 
      23 H6         0.4494   -1.3775    1.1761 H         1 YZ9900      0.0000 
      24 H5        -2.0208   -1.3613    0.7879 H         1 YZ9900      0.0000 
      25 H4         0.0315    2.3560    4.3932 H         1 YZ9900      0.0000 
      26 HO4        2.2236    2.2586    4.6408 H         1 YZ9900      0.0000 
      27 H10        2.4563   -0.4942    2.2804 H         1 YZ9900      0.0000 
@<TRIPOS>BOND
       1       13       17 1        
       2        7       17 ar       
       3        7       10 ar       
       4        8       10 ar       
       5        8       11 ar       
       6       14       11 2        
       7       17       15 ar       
       8       10        9 ar       
       9       11       16 ar       
      10        2        4 1        
      11        2        1 1        
      12       15        5 ar       
      13        9        5 ar       
      14        9        6 ar       
      15       16        6 ar       
      16       16       12 1        
      17        4       12 1        
      18       12        3 2        
      19       18        1 1        
      20       19        1 1        
      21       20        1 1        
      22       21        2 1        
      23       22        2 1        
      24       23        5 1        
      25       24        6 1        
      26       25        7 1        
      27       26       13 1        
      28       27       15 1        
@<TRIPOS>SUBSTRUCTURE
 1 YZ9900 10 RESIDUE 4 A YZ9900 0 ROOT

