#        scan_R01_S0091_C0000_L00001_S0001_C0003_G0010_E0001.mol2
#        Mon Jun 19 14:43:27 2017
#        Descriptor:     11     1    36     1     3     5
#        Energy - RMSD - RMSD MassCentre:     -42.5819    999.9999    999.9999
#        Receptor:       1  Surface Point:    91  Conformer:     0
#        Ligand:         1  Surface Point:     1  Conformer:     3
#        BUDE Formal Charge: 0
#        ATOM Count: 27
#        Heavy ATOM Count: 17
@<TRIPOS>MOLECULE
pdb1gcz_ligA.pdb_scan_R01_S0091_C0000_L00001_S0001_C0003_G0010_E0001
27 28 1 0 0
SMALL
GASTEIGER
@<TRIPOS>ATOM
       1 C3        -6.8654   -1.1670   -0.1499 C.3       1 YZ9900      0.0513 
       2 C11       -7.0034   -0.8126    1.3280 C.3       1 YZ9900      0.2089 
       3 O1        -4.6444   -1.9718    1.2679 O.2       1 YZ9900     -0.2447 
       4 O2        -5.8081   -0.1680    1.7762 O.3       1 YZ9900     -0.4453 
       5 C6         0.2464   -0.9263    2.4836 C.ar      1 YZ9900      0.0063 
       6 C5        -2.2252   -0.8950    2.0867 C.ar      1 YZ9900      0.0160 
       7 C4         0.1622    1.6740    3.4801 C.ar      1 YZ9900      0.0796 
       8 O3        -2.2193    1.7599    3.1192 O.2       1 YZ9900     -0.4208 
       9 C2        -0.9755   -0.2481    2.5450 C.ar      1 YZ9900      0.0353 
      10 C1        -1.0179    1.0586    3.0456 C.ar      1 YZ9900      0.1519 
      11 C7        -3.3928    1.1466    2.6867 C.ar      1 YZ9900      0.3521 
      12 C12       -4.6500   -0.8576    1.6999 C.2       1 YZ9900      0.3476 
      13 O4         2.5158    1.6436    3.8578 O.3       1 YZ9900     -0.2865 
      14 O5        -4.4341    1.7782    2.7598 O.2       1 YZ9900     -0.2442 
      15 C10        1.4235   -0.3062    2.9194 C.ar      1 YZ9900      0.0422 
      16 C9        -3.3865   -0.2333    2.1516 C.ar      1 YZ9900      0.1515 
      17 C8         1.3879    1.0002    3.4211 C.ar      1 YZ9900      0.1988 
      18 H31       -6.0271   -1.8479   -0.2821 H         1 YZ9900      0.0000 
      19 H32       -7.7799   -1.6453   -0.4943 H         1 YZ9900      0.0000 
      20 H33       -6.6911   -0.2600   -0.7249 H         1 YZ9900      0.0000 
      21 H112      -7.1636   -1.7203    1.9058 H         1 YZ9900      0.0000 
      22 H113      -7.8490   -0.1416    1.4632 H         1 YZ9900      0.0000 
      23 H6         0.2868   -1.9345    2.0986 H         1 YZ9900      0.0000 
      24 H5        -2.1820   -1.9033    1.7021 H         1 YZ9900      0.0000 
      25 H4         0.1245    2.6822    3.8656 H         1 YZ9900      0.0000 
      26 HO4        2.3094    2.5439    4.1541 H         1 YZ9900      0.0000 
      27 H10        2.3538   -0.8517    2.8614 H         1 YZ9900      0.0000 
@<TRIPOS>BOND
       1       13       17 1        
       2        7       17 ar       
       3        7       10 ar       
       4        8       10 ar       
       5        8       11 ar       
       6       14       11 2        
       7       17       15 ar       
       8       10        9 ar       
       9       11       16 ar       
      10        2        4 1        
      11        2        1 1        
      12       15        5 ar       
      13        9        5 ar       
      14        9        6 ar       
      15       16        6 ar       
      16       16       12 1        
      17        4       12 1        
      18       12        3 2        
      19       18        1 1        
      20       19        1 1        
      21       20        1 1        
      22       21        2 1        
      23       22        2 1        
      24       23        5 1        
      25       24        6 1        
      26       25        7 1        
      27       26       13 1        
      28       27       15 1        
@<TRIPOS>SUBSTRUCTURE
 1 YZ9900 10 RESIDUE 4 A YZ9900 0 ROOT

