#        1GCZ_R01_S0001_C0000_L00005_S0001_C0016_G0010_E0001.mol2
#        Tue Jun  6 14:06:05 2017
#        Descriptor:      6    13    11    10     9    11
#        Energy - RMSD - RMSD MassCentre:     -72.3688    999.9999    999.9999
#        Receptor:       1  Surface Point:     1  Conformer:     0
#        Ligand:         5  Surface Point:     1  Conformer:    16
#        BUDE Formal Charge: 0
#        ATOM Count: 55
#        Heavy ATOM Count: 30
@<TRIPOS>MOLECULE
ZINC61464195_1GCZ_R01_S0001_C0000_L00005_S0001_C0016_G0010_E0001
 55 56 0 0 0
SMALL
USER_CHARGES
@<TRIPOS>ATOM
       1 C1         0.7504   -0.0300   -4.1730 C.3       1 <0>        -0.1456 
       2 C2        -0.0701    0.9222   -3.3077 C.3       1 <0>        -0.0579 
       3 C3        -1.5456    0.8047   -3.6789 C.3       1 <0>        -0.1456 
       4 C4         0.1122    0.5623   -1.8527 C.ar      1 <0>        -0.0771 
       5 C5         0.6630    1.5213   -0.9944 C.ar      1 <0>        -0.0943 
       6 C6         0.7538    1.2579    0.3775 C.ar      1 <0>        -0.0923 
       7 C7         0.2917    0.0441    0.9001 C.ar      1 <0>        -0.1041 
       8 C8        -0.2123   -0.9415    0.0430 C.ar      1 <0>        -0.1315 
       9 C9        -0.2681   -0.6837   -1.3318 C.ar      1 <0>        -0.0969 
      10 S1         0.3540   -0.2410    2.6459 S.3       1 <0>        -0.0341 
      11 C10       -1.1965    0.3310    3.4085 C.3       1 <0>        -0.1267 
      12 C11       -1.1434    0.0878    4.8979 C.2       1 <0>         0.4864 
      13 O1        -1.7132   -0.8495    5.3718 O.2       1 <0>        -0.4815 
      14 O2        -0.4516    0.9299    5.6945 O.3       1 <0>        -0.3231 
      15 C12        0.2141    2.0376    5.0823 C.3       1 <0>         0.0526 
      16 C13        0.9221    2.8468    6.1426 C.2       1 <0>         0.5250 
      17 O3         0.6480    4.0364    6.2930 O.2       1 <0>        -0.5082 
      18 N1         1.8418    2.2741    6.9138 N.am      1 <0>        -0.5981 
      19 C14        2.5301    3.0632    7.9455 C.3       1 <0>         0.0731 
      20 C15        2.1693    0.8523    6.7342 C.3       1 <0>         0.1010 
      21 C16        3.6662    0.6684    6.8072 C.2       1 <0>         0.4997 
      22 O4         4.1460   -0.1717    7.5669 O.2       1 <0>        -0.5061 
      23 N2         4.4653    1.4149    6.0501 N.am      1 <0>        -0.6702 
      24 C17        5.8681    1.2426    6.1186 C.ar      1 <0>         0.1553 
      25 C18        6.6296    1.2263    4.9440 C.ar      1 <0>        -0.1106 
      26 C19        8.0181    1.0627    5.0170 C.ar      1 <0>        -0.0959 
      27 C20        8.6446    0.9075    6.2567 C.ar      1 <0>        -0.1208 
      28 C21        7.8824    0.9102    7.4311 C.ar      1 <0>        -0.0919 
      29 C22        6.4948    1.0816    7.3601 C.ar      1 <0>        -0.0639 
      30 Cl1        5.5435    1.0814    8.8171 Cl        1 <0>        -0.0632 
      31 H1         0.4052   -1.0498   -4.0165 H         1 <0>         0.0596 
      32 H2         0.6296    0.2378   -5.2206 H         1 <0>         0.0563 
      33 H3         1.8004    0.0445   -3.8977 H         1 <0>         0.0575 
      34 H4         0.2657    1.9438   -3.4727 H         1 <0>         0.0784 
      35 H5        -2.1280    1.4929   -3.0700 H         1 <0>         0.0596 
      36 H6        -1.8837   -0.2139   -3.5001 H         1 <0>         0.0574 
      37 H7        -1.6750    1.0511   -4.7307 H         1 <0>         0.0563 
      38 H8         1.0071    2.4731   -1.3713 H         1 <0>         0.1285 
      39 H9         1.1662    1.9670    1.0799 H         1 <0>         0.1293 
      40 H10       -0.5476   -1.8803    0.4584 H         1 <0>         0.1227 
      41 H11       -0.6261   -1.4681   -1.9820 H         1 <0>         0.1262 
      42 H12       -1.3232    1.3950    3.2198 H         1 <0>         0.1329 
      43 H13       -2.0346   -0.2161    2.9820 H         1 <0>         0.1329 
      44 H14       -0.5160    2.6651    4.5754 H         1 <0>         0.1063 
      45 H15        0.9413    1.6710    4.3609 H         1 <0>         0.1054 
      46 H16        1.8007    3.4411    8.6589 H         1 <0>         0.0686 
      47 H17        3.2511    2.4332    8.4621 H         1 <0>         0.0794 
      48 H18        3.0470    3.8985    7.4775 H         1 <0>         0.0778 
      49 H19        1.6929    0.2691    7.5193 H         1 <0>         0.1198 
      50 H20        1.8091    0.5177    5.7636 H         1 <0>         0.1233 
      51 H21        4.0703    2.1045    5.4266 H         1 <0>         0.4142 
      52 H22        6.1513    1.3454    3.9829 H         1 <0>         0.1473 
      53 H23        8.6047    1.0580    4.1101 H         1 <0>         0.1337 
      54 H24        9.7161    0.7852    6.3127 H         1 <0>         0.1349 
      55 H25        8.3642    0.7838    8.3893 H         1 <0>         0.1385 
@<TRIPOS>BOND
       1        1        2 1        
       2        1       31 1        
       3        1       32 1        
       4        1       33 1        
       5        2        3 1        
       6        2        4 1        
       7        2       34 1        
       8        3       35 1        
       9        3       36 1        
      10        3       37 1        
      11        4        9 ar       
      12        4        5 ar       
      13        5        6 ar       
      14        5       38 1        
      15        6        7 ar       
      16        6       39 1        
      17        7        8 ar       
      18        7       10 1        
      19        8        9 ar       
      20        8       40 1        
      21        9       41 1        
      22       10       11 1        
      23       11       12 1        
      24       11       42 1        
      25       11       43 1        
      26       12       13 2        
      27       12       14 1        
      28       14       15 1        
      29       15       16 1        
      30       15       44 1        
      31       15       45 1        
      32       16       17 2        
      33       16       18 am       
      34       18       19 1        
      35       18       20 1        
      36       19       46 1        
      37       19       47 1        
      38       19       48 1        
      39       20       21 1        
      40       20       49 1        
      41       20       50 1        
      42       21       22 2        
      43       21       23 am       
      44       23       24 1        
      45       23       51 1        
      46       24       29 ar       
      47       24       25 ar       
      48       25       26 ar       
      49       25       52 1        
      50       26       27 ar       
      51       26       53 1        
      52       27       28 ar       
      53       27       54 1        
      54       28       29 ar       
      55       28       55 1        
      56       29       30 1        

