#        scan_R01_S0091_C0000_L00001_S0001_C0003_G0010_E0001.mol2
#        Mon Jun 19 14:15:22 2017
#        Descriptor:     14    36     1     1     3     5
#        Energy - RMSD - RMSD MassCentre:     -40.3617    999.9999    999.9999
#        Receptor:       1  Surface Point:    91  Conformer:     0
#        Ligand:         1  Surface Point:     1  Conformer:     3
#        BUDE Formal Charge: 0
#        ATOM Count: 27
#        Heavy ATOM Count: 17
@<TRIPOS>MOLECULE
pdb1gcz_ligA.pdb_scan_R01_S0091_C0000_L00001_S0001_C0003_G0010_E0001
27 28 1 0 0
SMALL
GASTEIGER
@<TRIPOS>ATOM
       1 C3        -7.0823   -0.9203    0.1121 C.3       1 YZ9900      0.0513 
       2 C11       -6.8881   -1.3254    1.5705 C.3       1 YZ9900      0.2089 
       3 O1        -4.4770   -1.6817    0.5850 O.2       1 YZ9900     -0.2447 
       4 O2        -5.7289   -0.6729    2.0953 O.3       1 YZ9900     -0.4453 
       5 C6         0.3473   -0.0883    1.4090 C.ar      1 YZ9900      0.0063 
       6 C5        -2.1191   -0.5152    1.4578 C.ar      1 YZ9900      0.0160 
       7 C4         0.1314    1.6546    3.5716 C.ar      1 YZ9900      0.0796 
       8 O3        -2.2479    1.2811    3.6650 O.2       1 YZ9900     -0.4208 
       9 C2        -0.9057    0.1488    1.9842 C.ar      1 YZ9900      0.0353 
      10 C1        -1.0142    1.0246    3.0709 C.ar      1 YZ9900      0.1519 
      11 C7        -3.3870    0.6537    3.1659 C.ar      1 YZ9900      0.3521 
      12 C12       -4.5390   -0.9293    1.5113 C.2       1 YZ9900      0.3476 
      13 O4         2.4800    2.0607    3.5247 O.3       1 YZ9900     -0.2865 
      14 O5        -4.4574    0.8920    3.7006 O.2       1 YZ9900     -0.2442 
      15 C10        1.4897    0.5443    1.9137 C.ar      1 YZ9900      0.0422 
      16 C9        -3.3108   -0.2782    2.0187 C.ar      1 YZ9900      0.1515 
      17 C8         1.3878    1.4212    3.0002 C.ar      1 YZ9900      0.1988 
      18 H31       -6.2134   -1.2258   -0.4672 H         1 YZ9900      0.0000 
      19 H32       -7.9718   -1.4062   -0.2833 H         1 YZ9900      0.0000 
      20 H33       -7.1997    0.1595    0.0490 H         1 YZ9900      0.0000 
      21 H112      -6.7564   -2.4035    1.6336 H         1 YZ9900      0.0000 
      22 H113      -7.7617   -1.0316    2.1485 H         1 YZ9900      0.0000 
      23 H6         0.4387   -0.7627    0.5704 H         1 YZ9900      0.0000 
      24 H5        -2.0248   -1.1891    0.6192 H         1 YZ9900      0.0000 
      25 H4         0.0427    2.3295    4.4102 H         1 YZ9900      0.0000 
      26 HO4        2.2236    2.6408    4.2586 H         1 YZ9900      0.0000 
      27 H10        2.4450    0.3441    1.4516 H         1 YZ9900      0.0000 
@<TRIPOS>BOND
       1       13       17 1        
       2        7       17 ar       
       3        7       10 ar       
       4        8       10 ar       
       5        8       11 ar       
       6       14       11 2        
       7       17       15 ar       
       8       10        9 ar       
       9       11       16 ar       
      10        2        4 1        
      11        2        1 1        
      12       15        5 ar       
      13        9        5 ar       
      14        9        6 ar       
      15       16        6 ar       
      16       16       12 1        
      17        4       12 1        
      18       12        3 2        
      19       18        1 1        
      20       19        1 1        
      21       20        1 1        
      22       21        2 1        
      23       22        2 1        
      24       23        5 1        
      25       24        6 1        
      26       25        7 1        
      27       26       13 1        
      28       27       15 1        
@<TRIPOS>SUBSTRUCTURE
 1 YZ9900 10 RESIDUE 4 A YZ9900 0 ROOT

