#        scan_R01_S0092_C0000_L00001_S0001_C0000_G0010_E0001.mol2
#        Mon Jun 19 14:43:28 2017
#        Descriptor:     20    18     5     2     3     4
#        Energy - RMSD - RMSD MassCentre:     -42.8470    999.9999    999.9999
#        Receptor:       1  Surface Point:    92  Conformer:     0
#        Ligand:         1  Surface Point:     1  Conformer:     0
#        BUDE Formal Charge: 0
#        ATOM Count: 27
#        Heavy ATOM Count: 17
@<TRIPOS>MOLECULE
pdb1gcz_ligA.pdb_scan_R01_S0092_C0000_L00001_S0001_C0000_G0010_E0001
27 28 1 0 0
SMALL
GASTEIGER
@<TRIPOS>ATOM
       1 C3        -5.0951    0.9907    1.7264 C.3       1 YZ9900      0.0513 
       2 C11       -3.8637    1.3636    0.9515 C.3       1 YZ9900      0.2089 
       3 O1        -2.4560    2.7283    3.7554 O.2       1 YZ9900     -0.2447 
       4 O2        -3.1710    2.4843    1.6334 O.3       1 YZ9900     -0.4453 
       5 C6         1.8116   -0.3254    3.8615 C.ar      1 YZ9900      0.0063 
       6 C5        -0.1846    1.1217    3.3312 C.ar      1 YZ9900      0.0160 
       7 C4         2.8017    0.0992    1.1284 C.ar      1 YZ9900      0.0796 
       8 O3         0.8600    1.4637    0.7321 O.2       1 YZ9900     -0.4208 
       9 C2         1.1039    0.4749    2.9333 C.ar      1 YZ9900      0.0353 
      10 C1         1.6019    0.6701    1.6085 C.ar      1 YZ9900      0.1519 
      11 C7        -0.3078    1.9829    1.0355 C.ar      1 YZ9900      0.3521 
      12 C12       -2.2459    2.3778    2.6342 C.2       1 YZ9900      0.3476 
      13 O4         4.6297   -1.3019    1.7592 O.3       1 YZ9900     -0.2865 
      14 O5        -0.8759    2.5908    0.2191 O.2       1 YZ9900     -0.2442 
      15 C10        3.0280   -0.9270    3.4259 C.ar      1 YZ9900      0.0422 
      16 C9        -0.8874    1.8000    2.3726 C.ar      1 YZ9900      0.1515 
      17 C8         3.4771   -0.7028    2.1047 C.ar      1 YZ9900      0.1988 
      18 H31       -4.8149    0.7084    2.7413 H         1 YZ9900      0.0000 
      19 H32       -5.7742    1.8427    1.7610 H         1 YZ9900      0.0000 
      20 H33       -5.5904    0.1509    1.2392 H         1 YZ9900      0.0000 
      21 H112      -4.1471    1.6705   -0.0553 H         1 YZ9900      0.0000 
      22 H113      -3.1957    0.5041    0.8950 H         1 YZ9900      0.0000 
      23 H6         1.4427   -0.4751    4.8653 H         1 YZ9900      0.0000 
      24 H5        -0.5498    1.0555    4.3453 H         1 YZ9900      0.0000 
      25 H4         3.1726    0.2520    0.1257 H         1 YZ9900      0.0000 
      26 HO4        4.4875   -2.2477    1.6780 H         1 YZ9900      0.0000 
      27 H10        3.6009   -1.5480    4.0987 H         1 YZ9900      0.0000 
@<TRIPOS>BOND
       1       13       17 1        
       2        7       17 ar       
       3        7       10 ar       
       4        8       10 ar       
       5        8       11 ar       
       6       14       11 2        
       7       17       15 ar       
       8       10        9 ar       
       9       11       16 ar       
      10        2        4 1        
      11        2        1 1        
      12       15        5 ar       
      13        9        5 ar       
      14        9        6 ar       
      15       16        6 ar       
      16       16       12 1        
      17        4       12 1        
      18       12        3 2        
      19       18        1 1        
      20       19        1 1        
      21       20        1 1        
      22       21        2 1        
      23       22        2 1        
      24       23        5 1        
      25       24        6 1        
      26       25        7 1        
      27       26       13 1        
      28       27       15 1        
@<TRIPOS>SUBSTRUCTURE
 1 YZ9900 10 RESIDUE 4 A YZ9900 0 ROOT

