#        scan_R01_S0092_C0000_L00001_S0001_C0002_G0010_E0001.mol2
#        Mon Jun 19 14:43:28 2017
#        Descriptor:      5     1    35     3     2     4
#        Energy - RMSD - RMSD MassCentre:     -42.6035    999.9999    999.9999
#        Receptor:       1  Surface Point:    92  Conformer:     0
#        Ligand:         1  Surface Point:     1  Conformer:     2
#        BUDE Formal Charge: 0
#        ATOM Count: 27
#        Heavy ATOM Count: 17
@<TRIPOS>MOLECULE
pdb1gcz_ligA.pdb_scan_R01_S0092_C0000_L00001_S0001_C0002_G0010_E0001
27 28 1 0 0
SMALL
GASTEIGER
@<TRIPOS>ATOM
       1 C3        -6.3346    0.6530    1.3506 C.3       1 YZ9900      0.0513 
       2 C11       -5.4805   -0.3089    2.1713 C.3       1 YZ9900      0.2089 
       3 O1        -3.5403   -1.6517    3.3308 O.2       1 YZ9900     -0.2447 
       4 O2        -4.0968   -0.0199    1.9547 O.3       1 YZ9900     -0.4453 
       5 C6         1.6039   -1.7220    3.4835 C.ar      1 YZ9900      0.0063 
       6 C5        -0.8138   -1.2461    3.0410 C.ar      1 YZ9900      0.0160 
       7 C4         2.3668    0.3395    1.7718 C.ar      1 YZ9900      0.0796 
       8 O3         0.0553    0.8418    1.3091 O.2       1 YZ9900     -0.4208 
       9 C2         0.6242   -0.9652    2.8322 C.ar      1 YZ9900      0.0353 
      10 C1         1.0075    0.0707    1.9720 C.ar      1 YZ9900      0.1519 
      11 C7        -1.2968    0.5735    1.5090 C.ar      1 YZ9900      0.3521 
      12 C12       -3.1834   -0.7740    2.6025 C.2       1 YZ9900      0.3476 
      13 O4         4.6688   -0.1142    2.1935 O.3       1 YZ9900     -0.2865 
      14 O5        -2.1142    1.2606    0.9189 O.2       1 YZ9900     -0.2442 
      15 C10        2.9618   -1.4490    3.2797 C.ar      1 YZ9900      0.0422 
      16 C9        -1.7393   -0.5134    2.4108 C.ar      1 YZ9900      0.1515 
      17 C8         3.3516   -0.4145    2.4209 C.ar      1 YZ9900      0.1988 
      18 H31       -6.1093    0.5256    0.2937 H         1 YZ9900      0.0000 
      19 H32       -7.3874    0.4418    1.5257 H         1 YZ9900      0.0000 
      20 H33       -6.1150    1.6762    1.6481 H         1 YZ9900      0.0000 
      21 H112      -5.6889   -1.3319    1.8649 H         1 YZ9900      0.0000 
      22 H113      -5.7138   -0.1913    3.2274 H         1 YZ9900      0.0000 
      23 H6         1.3157   -2.5227    4.1485 H         1 YZ9900      0.0000 
      24 H5        -1.0992   -2.0474    3.7066 H         1 YZ9900      0.0000 
      25 H4         2.6576    1.1397    1.1073 H         1 YZ9900      0.0000 
      26 HO4        4.7543    0.6160    1.5607 H         1 YZ9900      0.0000 
      27 H10        3.6983   -2.0481    3.7946 H         1 YZ9900      0.0000 
@<TRIPOS>BOND
       1       13       17 1        
       2        7       17 ar       
       3        7       10 ar       
       4        8       10 ar       
       5        8       11 ar       
       6       14       11 2        
       7       17       15 ar       
       8       10        9 ar       
       9       11       16 ar       
      10        2        4 1        
      11        2        1 1        
      12       15        5 ar       
      13        9        5 ar       
      14        9        6 ar       
      15       16        6 ar       
      16       16       12 1        
      17        4       12 1        
      18       12        3 2        
      19       18        1 1        
      20       19        1 1        
      21       20        1 1        
      22       21        2 1        
      23       22        2 1        
      24       23        5 1        
      25       24        6 1        
      26       25        7 1        
      27       26       13 1        
      28       27       15 1        
@<TRIPOS>SUBSTRUCTURE
 1 YZ9900 10 RESIDUE 4 A YZ9900 0 ROOT

