#        scan_R01_S0092_C0000_L00001_S0001_C0002_G0010_E0001.mol2
#        Mon Jun 19 14:15:23 2017
#        Descriptor:     23    16    14     3     2     4
#        Energy - RMSD - RMSD MassCentre:     -38.5482    999.9999    999.9999
#        Receptor:       1  Surface Point:    92  Conformer:     0
#        Ligand:         1  Surface Point:     1  Conformer:     2
#        BUDE Formal Charge: 0
#        ATOM Count: 27
#        Heavy ATOM Count: 17
@<TRIPOS>MOLECULE
pdb1gcz_ligA.pdb_scan_R01_S0092_C0000_L00001_S0001_C0002_G0010_E0001
27 28 1 0 0
SMALL
GASTEIGER
@<TRIPOS>ATOM
       1 C3        -4.8537    4.0887    0.0864 C.3       1 YZ9900      0.0513 
       2 C11       -4.7158    2.9301    1.0698 C.3       1 YZ9900      0.2089 
       3 O1        -3.8862    0.9474    2.5839 O.2       1 YZ9900     -0.2447 
       4 O2        -3.3595    2.4771    1.0843 O.3       1 YZ9900     -0.4453 
       5 C6         0.4543   -1.6190    3.6162 C.ar      1 YZ9900      0.0063 
       6 C5        -1.3141   -0.0714    2.7526 C.ar      1 YZ9900      0.0160 
       7 C4         2.3688   -0.4023    1.9988 C.ar      1 YZ9900      0.0796 
       8 O3         0.7072    1.1137    1.1327 O.2       1 YZ9900     -0.4208 
       9 C2         0.0836   -0.5571    2.7844 C.ar      1 YZ9900      0.0353 
      10 C1         1.0456    0.0543    1.9716 C.ar      1 YZ9900      0.1519 
      11 C7        -0.6096    1.5672    1.1064 C.ar      1 YZ9900      0.3521 
      12 C12       -3.0437    1.4497    1.9013 C.2       1 YZ9900      0.3476 
      13 O4         4.0522   -1.8762    2.8214 O.3       1 YZ9900     -0.2865 
      14 O5        -0.8847    2.4960    0.3648 O.2       1 YZ9900     -0.2442 
      15 C10        1.7789   -2.0716    3.6395 C.ar      1 YZ9900      0.0422 
      16 C9        -1.6533    0.9454    1.9515 C.ar      1 YZ9900      0.1515 
      17 C8         2.7455   -1.4645    2.8292 C.ar      1 YZ9900      0.1988 
      18 H31       -4.5845    3.7501   -0.9120 H         1 YZ9900      0.0000 
      19 H32       -5.8827    4.4419    0.0852 H         1 YZ9900      0.0000 
      20 H33       -4.1919    4.8986    0.3861 H         1 YZ9900      0.0000 
      21 H112      -5.3668    2.1139    0.7633 H         1 YZ9900      0.0000 
      22 H113      -4.9967    3.2640    2.0664 H         1 YZ9900      0.0000 
      23 H6        -0.2824   -2.0955    4.2459 H         1 YZ9900      0.0000 
      24 H5        -2.0487   -0.5498    3.3834 H         1 YZ9900      0.0000 
      25 H4         3.1074    0.0726    1.3700 H         1 YZ9900      0.0000 
      26 HO4        4.5760   -1.3576    2.1908 H         1 YZ9900      0.0000 
      27 H10        2.0390   -2.8931    4.2906 H         1 YZ9900      0.0000 
@<TRIPOS>BOND
       1       13       17 1        
       2        7       17 ar       
       3        7       10 ar       
       4        8       10 ar       
       5        8       11 ar       
       6       14       11 2        
       7       17       15 ar       
       8       10        9 ar       
       9       11       16 ar       
      10        2        4 1        
      11        2        1 1        
      12       15        5 ar       
      13        9        5 ar       
      14        9        6 ar       
      15       16        6 ar       
      16       16       12 1        
      17        4       12 1        
      18       12        3 2        
      19       18        1 1        
      20       19        1 1        
      21       20        1 1        
      22       21        2 1        
      23       22        2 1        
      24       23        5 1        
      25       24        6 1        
      26       25        7 1        
      27       26       13 1        
      28       27       15 1        
@<TRIPOS>SUBSTRUCTURE
 1 YZ9900 10 RESIDUE 4 A YZ9900 0 ROOT

