#        scan_R01_S0092_C0000_L00001_S0001_C0003_G0010_E0001.mol2
#        Mon Jun 19 14:15:24 2017
#        Descriptor:     23    16    16     3     2     4
#        Energy - RMSD - RMSD MassCentre:     -42.1773    999.9999    999.9999
#        Receptor:       1  Surface Point:    92  Conformer:     0
#        Ligand:         1  Surface Point:     1  Conformer:     3
#        BUDE Formal Charge: 0
#        ATOM Count: 27
#        Heavy ATOM Count: 17
@<TRIPOS>MOLECULE
pdb1gcz_ligA.pdb_scan_R01_S0092_C0000_L00001_S0001_C0003_G0010_E0001
27 28 1 0 0
SMALL
GASTEIGER
@<TRIPOS>ATOM
       1 C3        -5.8397   -0.5838    0.6219 C.3       1 YZ9900      0.0513 
       2 C11       -5.3733    0.7984    1.0698 C.3       1 YZ9900      0.2089 
       3 O1        -3.9155   -0.7809    2.5839 O.2       1 YZ9900     -0.2447 
       4 O2        -3.9438    0.8367    1.0843 O.3       1 YZ9900     -0.4453 
       5 C6         1.0409   -1.7080    3.6162 C.ar      1 YZ9900      0.0063 
       6 C5        -1.1501   -0.8586    2.7526 C.ar      1 YZ9900      0.0160 
       7 C4         2.4238    0.0901    1.9988 C.ar      1 YZ9900      0.0796 
       8 O3         0.3440    0.9464    1.1327 O.2       1 YZ9900     -0.4208 
       9 C2         0.3294   -0.8369    2.7844 C.ar      1 YZ9900      0.0353 
      10 C1         1.0243    0.0666    1.9716 C.ar      1 YZ9900      0.1519 
      11 C7        -1.0485    0.9222    1.1064 C.ar      1 YZ9900      0.3521 
      12 C12       -3.2957   -0.0207    1.9013 C.2       1 YZ9900      0.3476 
      13 O4         4.5098   -0.7191    2.8214 O.3       1 YZ9900     -0.2865 
      14 O5        -1.6247    1.7009    0.3648 O.2       1 YZ9900     -0.2442 
      15 C10        2.4404   -1.6803    3.6395 C.ar      1 YZ9900      0.0422 
      16 C9        -1.8167   -0.0191    1.9515 C.ar      1 YZ9900      0.1515 
      17 C8         3.1412   -0.7792    2.8292 C.ar      1 YZ9900      0.1988 
      18 H31       -5.4743   -1.3333    1.3209 H         1 YZ9900      0.0000 
      19 H32       -6.9271   -0.6087    0.5979 H         1 YZ9900      0.0000 
      20 H33       -5.4496   -0.7930   -0.3719 H         1 YZ9900      0.0000 
      21 H112      -5.7510    1.0031    2.0693 H         1 YZ9900      0.0000 
      22 H113      -5.7485    1.5501    0.3786 H         1 YZ9900      0.0000 
      23 H6         0.5116   -2.4077    4.2459 H         1 YZ9900      0.0000 
      24 H5        -1.6769   -1.5593    3.3834 H         1 YZ9900      0.0000 
      25 H4         2.9555    0.7890    1.3700 H         1 YZ9900      0.0000 
      26 HO4        4.8247   -0.0527    2.1908 H         1 YZ9900      0.0000 
      27 H10        2.9658   -2.3633    4.2906 H         1 YZ9900      0.0000 
@<TRIPOS>BOND
       1       13       17 1        
       2        7       17 ar       
       3        7       10 ar       
       4        8       10 ar       
       5        8       11 ar       
       6       14       11 2        
       7       17       15 ar       
       8       10        9 ar       
       9       11       16 ar       
      10        2        4 1        
      11        2        1 1        
      12       15        5 ar       
      13        9        5 ar       
      14        9        6 ar       
      15       16        6 ar       
      16       16       12 1        
      17        4       12 1        
      18       12        3 2        
      19       18        1 1        
      20       19        1 1        
      21       20        1 1        
      22       21        2 1        
      23       22        2 1        
      24       23        5 1        
      25       24        6 1        
      26       25        7 1        
      27       26       13 1        
      28       27       15 1        
@<TRIPOS>SUBSTRUCTURE
 1 YZ9900 10 RESIDUE 4 A YZ9900 0 ROOT

