#        scan_R01_S0093_C0000_L00001_S0001_C0000_G0010_E0001.mol2
#        Mon Jun 19 14:43:30 2017
#        Descriptor:      9     6    20     2     2     5
#        Energy - RMSD - RMSD MassCentre:     -46.8179    999.9999    999.9999
#        Receptor:       1  Surface Point:    93  Conformer:     0
#        Ligand:         1  Surface Point:     1  Conformer:     0
#        BUDE Formal Charge: 0
#        ATOM Count: 27
#        Heavy ATOM Count: 17
@<TRIPOS>MOLECULE
pdb1gcz_ligA.pdb_scan_R01_S0093_C0000_L00001_S0001_C0000_G0010_E0001
27 28 1 0 0
SMALL
GASTEIGER
@<TRIPOS>ATOM
       1 C3        -4.9665   -0.6628    3.9646 C.3       1 YZ9900      0.0513 
       2 C11       -3.8066   -1.2716    3.2298 C.3       1 YZ9900      0.2089 
       3 O1        -2.8336    1.8132    2.1148 O.2       1 YZ9900     -0.2447 
       4 O2        -3.3906   -0.3693    2.1282 O.3       1 YZ9900     -0.4453 
       5 C6         1.9646    1.7614    4.2415 C.ar      1 YZ9900      0.0063 
       6 C5        -0.2629    1.3154    3.1464 C.ar      1 YZ9900      0.0160 
       7 C4         2.9623   -0.7853    3.1694 C.ar      1 YZ9900      0.0796 
       8 O3         0.7993   -1.1083    2.1663 O.2       1 YZ9900     -0.4208 
       9 C2         1.1474    0.9203    3.4494 C.ar      1 YZ9900      0.0353 
      10 C1         1.6509   -0.3144    2.9363 C.ar      1 YZ9900      0.1519 
      11 C7        -0.4627   -0.8171    1.9467 C.ar      1 YZ9900      0.3521 
      12 C12       -2.5075    0.6701    2.2202 C.2       1 YZ9900      0.3476 
      13 O4         5.0117   -0.2461    4.2702 O.3       1 YZ9900     -0.2865 
      14 O5        -1.1085   -1.5680    1.3320 O.2       1 YZ9900     -0.2442 
      15 C10        3.2968    1.3307    4.5084 C.ar      1 YZ9900      0.0422 
      16 C9        -1.0489    0.4254    2.4660 C.ar      1 YZ9900      0.1515 
      17 C8         3.7463    0.1004    3.9777 C.ar      1 YZ9900      0.1988 
      18 H31       -4.6778    0.3130    4.3556 H         1 YZ9900      0.0000 
      19 H32       -5.8079   -0.5458    3.2816 H         1 YZ9900      0.0000 
      20 H33       -5.2559   -1.3137    4.7895 H         1 YZ9900      0.0000 
      21 H112      -4.1037   -2.2358    2.8172 H         1 YZ9900      0.0000 
      22 H113      -2.9734   -1.4122    3.9185 H         1 YZ9900      0.0000 
      23 H6         1.5918    2.6973    4.6303 H         1 YZ9900      0.0000 
      24 H5        -0.6498    2.2751    3.4557 H         1 YZ9900      0.0000 
      25 H4         3.3364   -1.7195    2.7774 H         1 YZ9900      0.0000 
      26 HO4        5.0718   -0.4870    5.1975 H         1 YZ9900      0.0000 
      27 H10        3.9562    1.9385    5.1103 H         1 YZ9900      0.0000 
@<TRIPOS>BOND
       1       13       17 1        
       2        7       17 ar       
       3        7       10 ar       
       4        8       10 ar       
       5        8       11 ar       
       6       14       11 2        
       7       17       15 ar       
       8       10        9 ar       
       9       11       16 ar       
      10        2        4 1        
      11        2        1 1        
      12       15        5 ar       
      13        9        5 ar       
      14        9        6 ar       
      15       16        6 ar       
      16       16       12 1        
      17        4       12 1        
      18       12        3 2        
      19       18        1 1        
      20       19        1 1        
      21       20        1 1        
      22       21        2 1        
      23       22        2 1        
      24       23        5 1        
      25       24        6 1        
      26       25        7 1        
      27       26       13 1        
      28       27       15 1        
@<TRIPOS>SUBSTRUCTURE
 1 YZ9900 10 RESIDUE 4 A YZ9900 0 ROOT

