#        scan_R01_S0093_C0000_L00001_S0001_C0002_G0010_E0001.mol2
#        Mon Jun 19 14:43:30 2017
#        Descriptor:      9    19     3     1     3     5
#        Energy - RMSD - RMSD MassCentre:     -44.5162    999.9999    999.9999
#        Receptor:       1  Surface Point:    93  Conformer:     0
#        Ligand:         1  Surface Point:     1  Conformer:     2
#        BUDE Formal Charge: 0
#        ATOM Count: 27
#        Heavy ATOM Count: 17
@<TRIPOS>MOLECULE
pdb1gcz_ligA.pdb_scan_R01_S0093_C0000_L00001_S0001_C0002_G0010_E0001
27 28 1 0 0
SMALL
GASTEIGER
@<TRIPOS>ATOM
       1 C3         5.7158    3.8488    4.1947 C.3       1 YZ9900      0.0513 
       2 C11        5.2527    2.4046    4.0256 C.3       1 YZ9900      0.2089 
       3 O1         3.8985    0.1799    3.6674 O.2       1 YZ9900     -0.2447 
       4 O2         3.8395    2.3805    3.8084 O.3       1 YZ9900     -0.4453 
       5 C6        -0.9447   -1.3446    2.8245 C.ar      1 YZ9900      0.0063 
       6 C5         1.1726   -0.0731    3.2342 C.ar      1 YZ9900      0.0160 
       7 C4        -2.4066    1.0262    2.7630 C.ar      1 YZ9900      0.0796 
       8 O3        -0.3994    2.3012    3.1563 O.2       1 YZ9900     -0.4208 
       9 C2        -0.2892   -0.1225    3.0078 C.ar      1 YZ9900      0.0353 
      10 C1        -1.0237    1.0689    2.9770 C.ar      1 YZ9900      0.1519 
      11 C7         0.9766    2.3425    3.3690 C.ar      1 YZ9900      0.3521 
      12 C12        3.2457    1.1803    3.6360 C.2       1 YZ9900      0.3476 
      13 O4        -4.4224   -0.1851    2.3729 O.3       1 YZ9900     -0.2865 
      14 O5         1.5035    3.4319    3.5237 O.2       1 YZ9900     -0.2442 
      15 C10       -2.3279   -1.3815    2.6109 C.ar      1 YZ9900      0.0422 
      16 C9         1.7855    1.1037    3.4080 C.ar      1 YZ9900      0.1515 
      17 C8        -3.0681   -0.1938    2.5790 C.ar      1 YZ9900      0.1988 
      18 H31        5.2192    4.2896    5.0567 H         1 YZ9900      0.0000 
      19 H32        6.7929    3.8680    4.3468 H         1 YZ9900      0.0000 
      20 H33        5.4648    4.4164    3.3012 H         1 YZ9900      0.0000 
      21 H112       5.4905    1.8392    4.9243 H         1 YZ9900      0.0000 
      22 H113       5.7579    1.9587    3.1715 H         1 YZ9900      0.0000 
      23 H6        -0.3846   -2.2677    2.8470 H         1 YZ9900      0.0000 
      24 H5         1.7303   -0.9977    3.2562 H         1 YZ9900      0.0000 
      25 H4        -2.9691    1.9480    2.7400 H         1 YZ9900      0.0000 
      26 HO4       -4.7720    0.7194    2.3993 H         1 YZ9900      0.0000 
      27 H10       -2.8098   -2.3380    2.4722 H         1 YZ9900      0.0000 
@<TRIPOS>BOND
       1       13       17 1        
       2        7       17 ar       
       3        7       10 ar       
       4        8       10 ar       
       5        8       11 ar       
       6       14       11 2        
       7       17       15 ar       
       8       10        9 ar       
       9       11       16 ar       
      10        2        4 1        
      11        2        1 1        
      12       15        5 ar       
      13        9        5 ar       
      14        9        6 ar       
      15       16        6 ar       
      16       16       12 1        
      17        4       12 1        
      18       12        3 2        
      19       18        1 1        
      20       19        1 1        
      21       20        1 1        
      22       21        2 1        
      23       22        2 1        
      24       23        5 1        
      25       24        6 1        
      26       25        7 1        
      27       26       13 1        
      28       27       15 1        
@<TRIPOS>SUBSTRUCTURE
 1 YZ9900 10 RESIDUE 4 A YZ9900 0 ROOT

