#        1GCZ_R01_S0001_C0000_L00005_S0001_C0017_G0010_E0001.mol2
#        Tue Jun  6 09:55:43 2017
#        Descriptor:     21     5    33    10     9    14
#        Energy - RMSD - RMSD MassCentre:     -62.5024    999.9999    999.9999
#        Receptor:       1  Surface Point:     1  Conformer:     0
#        Ligand:         5  Surface Point:     1  Conformer:    17
#        BUDE Formal Charge: 0
#        ATOM Count: 55
#        Heavy ATOM Count: 30
@<TRIPOS>MOLECULE
ZINC61464195_1GCZ_R01_S0001_C0000_L00005_S0001_C0017_G0010_E0001
 55 56 0 0 0
SMALL
USER_CHARGES
@<TRIPOS>ATOM
       1 C1        -0.6165    1.5511   -1.8898 C.3       1 <0>        -0.1456 
       2 C2        -0.0609    0.3148   -1.1888 C.3       1 <0>        -0.0579 
       3 C3         1.4469    0.2376   -1.4108 C.3       1 <0>        -0.1456 
       4 C4        -0.3469    0.4051    0.2909 C.ar      1 <0>        -0.0771 
       5 C5        -1.1367   -0.5908    0.8775 C.ar      1 <0>        -0.0943 
       6 C6        -1.3390   -0.5934    2.2627 C.ar      1 <0>        -0.0923 
       7 C7        -0.7518    0.3896    3.0684 C.ar      1 <0>        -0.1041 
       8 C8        -0.0041    1.4192    2.4850 C.ar      1 <0>        -0.1315 
       9 C9         0.1652    1.4340    1.0955 C.ar      1 <0>        -0.0969 
      10 S1        -0.9650    0.3284    4.8245 S.3       1 <0>        -0.0341 
      11 C10        0.3784   -0.6520    5.5638 C.3       1 <0>        -0.1267 
      12 C11        1.7049   -0.0001    5.2546 C.2       1 <0>         0.4864 
      13 O1         2.3959   -0.4343    4.3817 O.2       1 <0>        -0.4815 
      14 O2         2.1105    1.0739    5.9648 O.3       1 <0>        -0.3231 
      15 C12        1.2500    1.5578    6.9994 C.3       1 <0>         0.0526 
      16 C13        1.8871    2.7547    7.6640 C.2       1 <0>         0.5250 
      17 O3         1.2993    3.8351    7.6781 O.2       1 <0>        -0.5082 
      18 N1         3.0834    2.6415    8.2339 N.am      1 <0>        -0.5981 
      19 C14        3.7021    3.8076    8.8805 C.3       1 <0>         0.0731 
      20 C15        3.7858    1.3503    8.2172 C.3       1 <0>         0.1010 
      21 C16        4.4023    1.0960    9.5719 C.2       1 <0>         0.4997 
      22 O4         5.5933    0.8019    9.6597 O.2       1 <0>        -0.5061 
      23 N2         3.6570    1.1902   10.6695 N.am      1 <0>        -0.6702 
      24 C17        4.2347    0.9519   11.9390 C.ar      1 <0>         0.1553 
      25 C18        3.5396    0.2012   12.8947 C.ar      1 <0>        -0.1106 
      26 C19        4.1181   -0.0380   14.1469 C.ar      1 <0>        -0.0959 
      27 C20        5.3822    0.4764   14.4485 C.ar      1 <0>        -0.1208 
      28 C21        6.0724    1.2387   13.4983 C.ar      1 <0>        -0.0919 
      29 C22        5.4985    1.4721   12.2429 C.ar      1 <0>        -0.0639 
      30 Cl1        6.3511    2.4222   11.0606 Cl        1 <0>        -0.0632 
      31 H1        -0.1336    2.4409   -1.4914 H         1 <0>         0.0596 
      32 H2        -0.4222    1.4798   -2.9580 H         1 <0>         0.0563 
      33 H3        -1.6893    1.6127   -1.7191 H         1 <0>         0.0575 
      34 H4        -0.5341   -0.5766   -1.5953 H         1 <0>         0.0784 
      35 H5         1.8398   -0.6508   -0.9211 H         1 <0>         0.0596 
      36 H6         1.9203    1.1230   -0.9915 H         1 <0>         0.0574 
      37 H7         1.6535    0.1860   -2.4778 H         1 <0>         0.0563 
      38 H8        -1.5828   -1.3715    0.2792 H         1 <0>         0.1285 
      39 H9        -1.9356   -1.3425    2.7620 H         1 <0>         0.1293 
      40 H10        0.4271    2.1813    3.1174 H         1 <0>         0.1227 
      41 H11        0.7145    2.2550    0.6589 H         1 <0>         0.1262 
      42 H12        0.2416   -0.7008    6.6421 H         1 <0>         0.1329 
      43 H13        0.3643   -1.6580    5.1498 H         1 <0>         0.1329 
      44 H14        1.0937    0.7741    7.7379 H         1 <0>         0.1063 
      45 H15        0.2935    1.8486    6.5702 H         1 <0>         0.1054 
      46 H16        3.0656    4.1511    9.6933 H         1 <0>         0.0686 
      47 H17        4.6766    3.5279    9.2754 H         1 <0>         0.0794 
      48 H18        3.8213    4.6055    8.1504 H         1 <0>         0.0778 
      49 H19        3.0788    0.5565    7.9849 H         1 <0>         0.1198 
      50 H20        4.5676    1.3733    7.4608 H         1 <0>         0.1233 
      51 H21        2.6790    1.4319   10.5962 H         1 <0>         0.4142 
      52 H22        2.5624   -0.1987   12.6678 H         1 <0>         0.1473 
      53 H23        3.5836   -0.6238   14.8801 H         1 <0>         0.1337 
      54 H24        5.8298    0.2883   15.4131 H         1 <0>         0.1349 
      55 H25        7.0464    1.6424   13.7320 H         1 <0>         0.1385 
@<TRIPOS>BOND
       1        1        2 1        
       2        1       31 1        
       3        1       32 1        
       4        1       33 1        
       5        2        3 1        
       6        2        4 1        
       7        2       34 1        
       8        3       35 1        
       9        3       36 1        
      10        3       37 1        
      11        4        9 ar       
      12        4        5 ar       
      13        5        6 ar       
      14        5       38 1        
      15        6        7 ar       
      16        6       39 1        
      17        7        8 ar       
      18        7       10 1        
      19        8        9 ar       
      20        8       40 1        
      21        9       41 1        
      22       10       11 1        
      23       11       12 1        
      24       11       42 1        
      25       11       43 1        
      26       12       13 2        
      27       12       14 1        
      28       14       15 1        
      29       15       16 1        
      30       15       44 1        
      31       15       45 1        
      32       16       17 2        
      33       16       18 am       
      34       18       19 1        
      35       18       20 1        
      36       19       46 1        
      37       19       47 1        
      38       19       48 1        
      39       20       21 1        
      40       20       49 1        
      41       20       50 1        
      42       21       22 2        
      43       21       23 am       
      44       23       24 1        
      45       23       51 1        
      46       24       29 ar       
      47       24       25 ar       
      48       25       26 ar       
      49       25       52 1        
      50       26       27 ar       
      51       26       53 1        
      52       27       28 ar       
      53       27       54 1        
      54       28       29 ar       
      55       28       55 1        
      56       29       30 1        

