#        scan_R01_S0093_C0000_L00001_S0001_C0002_G0010_E0001.mol2
#        Mon Jun 19 14:15:26 2017
#        Descriptor:     11    18     3     1     2     5
#        Energy - RMSD - RMSD MassCentre:     -46.3598    999.9999    999.9999
#        Receptor:       1  Surface Point:    93  Conformer:     0
#        Ligand:         1  Surface Point:     1  Conformer:     2
#        BUDE Formal Charge: 0
#        ATOM Count: 27
#        Heavy ATOM Count: 17
@<TRIPOS>MOLECULE
pdb1gcz_ligA.pdb_scan_R01_S0093_C0000_L00001_S0001_C0002_G0010_E0001
27 28 1 0 0
SMALL
GASTEIGER
@<TRIPOS>ATOM
       1 C3         5.7871    2.9201    3.2288 C.3       1 YZ9900      0.0513 
       2 C11        5.2778    1.5315    3.6042 C.3       1 YZ9900      0.2089 
       3 O1         3.8545   -0.6287    4.0729 O.2       1 YZ9900     -0.2447 
       4 O2         3.8687    1.4623    3.3703 O.3       1 YZ9900     -0.4453 
       5 C6        -1.0222   -2.2371    3.7250 C.ar      1 YZ9900      0.0063 
       6 C5         1.1298   -0.9585    3.6867 C.ar      1 YZ9900      0.0160 
       7 C4        -2.4004   -0.0303    2.7290 C.ar      1 YZ9900      0.0796 
       8 O3        -0.3579    1.2481    2.6709 O.2       1 YZ9900     -0.4208 
       9 C2        -0.3284   -1.0534    3.4523 C.ar      1 YZ9900      0.0353 
      10 C1        -1.0209    0.0556    2.9520 C.ar      1 YZ9900      0.1519 
      11 C7         1.0146    1.3324    2.8930 C.ar      1 YZ9900      0.3521 
      12 C12        3.2373    0.3014    3.6465 C.2       1 YZ9900      0.3476 
      13 O4        -4.4493   -1.2483    2.7658 O.3       1 YZ9900     -0.2865 
      14 O5         1.5758    2.3857    2.6402 O.2       1 YZ9900     -0.2442 
      15 C10       -2.4017   -2.3175    3.5002 C.ar      1 YZ9900      0.0422 
      16 C9         1.7796    0.1808    3.4211 C.ar      1 YZ9900      0.1515 
      17 C8        -3.0999   -1.2122    2.9999 C.ar      1 YZ9900      0.1988 
      18 H31        5.2905    3.6667    3.8452 H         1 YZ9900      0.0000 
      19 H32        6.8614    2.9685    3.3943 H         1 YZ9900      0.0000 
      20 H33        5.5720    3.1134    2.1800 H         1 YZ9900      0.0000 
      21 H112       5.4798    1.3425    4.6565 H         1 YZ9900      0.0000 
      22 H113       5.7827    0.7830    2.9972 H         1 YZ9900      0.0000 
      23 H6        -0.4946   -3.0967    4.1112 H         1 YZ9900      0.0000 
      24 H5         1.6549   -1.8197    4.0729 H         1 YZ9900      0.0000 
      25 H4        -2.9303    0.8280    2.3428 H         1 YZ9900      0.0000 
      26 HO4       -4.7680   -0.3927    2.4381 H         1 YZ9900      0.0000 
      27 H10       -2.9137   -3.2430    3.7189 H         1 YZ9900      0.0000 
@<TRIPOS>BOND
       1       13       17 1        
       2        7       17 ar       
       3        7       10 ar       
       4        8       10 ar       
       5        8       11 ar       
       6       14       11 2        
       7       17       15 ar       
       8       10        9 ar       
       9       11       16 ar       
      10        2        4 1        
      11        2        1 1        
      12       15        5 ar       
      13        9        5 ar       
      14        9        6 ar       
      15       16        6 ar       
      16       16       12 1        
      17        4       12 1        
      18       12        3 2        
      19       18        1 1        
      20       19        1 1        
      21       20        1 1        
      22       21        2 1        
      23       22        2 1        
      24       23        5 1        
      25       24        6 1        
      26       25        7 1        
      27       26       13 1        
      28       27       15 1        
@<TRIPOS>SUBSTRUCTURE
 1 YZ9900 10 RESIDUE 4 A YZ9900 0 ROOT

