#        scan_R01_S0093_C0000_L00001_S0001_C0003_G0010_E0001.mol2
#        Mon Jun 19 14:43:31 2017
#        Descriptor:     11    35    18     1     2     5
#        Energy - RMSD - RMSD MassCentre:     -46.1276    999.9999    999.9999
#        Receptor:       1  Surface Point:    93  Conformer:     0
#        Ligand:         1  Surface Point:     1  Conformer:     3
#        BUDE Formal Charge: 0
#        ATOM Count: 27
#        Heavy ATOM Count: 17
@<TRIPOS>MOLECULE
pdb1gcz_ligA.pdb_scan_R01_S0093_C0000_L00001_S0001_C0003_G0010_E0001
27 28 1 0 0
SMALL
GASTEIGER
@<TRIPOS>ATOM
       1 C3         5.5890    2.1670    2.0462 C.3       1 YZ9900      0.0513 
       2 C11        5.2132    1.8126    3.4821 C.3       1 YZ9900      0.2089 
       3 O1         3.0170    2.9718    2.6188 O.2       1 YZ9900     -0.2447 
       4 O2         3.9367    1.1680    3.4945 O.3       1 YZ9900     -0.4453 
       5 C6        -1.9946    1.9263    2.0885 C.ar      1 YZ9900      0.0063 
       6 C5         0.4637    1.8950    2.5608 C.ar      1 YZ9900      0.0160 
       7 C4        -2.2563   -0.6740    3.0536 C.ar      1 YZ9900      0.0796 
       8 O3         0.1050   -0.7599    3.5291 O.2       1 YZ9900     -0.4208 
       9 C2        -0.8674    1.2481    2.5641 C.ar      1 YZ9900      0.0353 
      10 C1        -0.9988   -0.0586    3.0490 C.ar      1 YZ9900      0.1519 
      11 C7         1.3557   -0.1466    3.5240 C.ar      1 YZ9900      0.3521 
      12 C12        2.8745    1.8576    3.0267 C.2       1 YZ9900      0.3476 
      13 O4        -4.5971   -0.6436    2.6036 O.3       1 YZ9900     -0.2865 
      14 O5         2.3091   -0.7782    3.9488 O.2       1 YZ9900     -0.2442 
      15 C10       -3.2498    1.3062    2.0954 C.ar      1 YZ9900      0.0422 
      16 C9         1.5328    1.2333    3.0190 C.ar      1 YZ9900      0.1515 
      17 C8        -3.3879   -0.0002    2.5790 C.ar      1 YZ9900      0.1988 
      18 H31        4.8465    2.8479    1.6352 H         1 YZ9900      0.0000 
      19 H32        6.5662    2.6453    2.0353 H         1 YZ9900      0.0000 
      20 H33        5.6219    1.2600    1.4462 H         1 YZ9900      0.0000 
      21 H112       5.1662    2.7203    4.0799 H         1 YZ9900      0.0000 
      22 H113       5.9616    1.1416    3.8984 H         1 YZ9900      0.0000 
      23 H6        -1.9009    2.9345    1.7128 H         1 YZ9900      0.0000 
      24 H5         0.5546    2.9033    2.1847 H         1 YZ9900      0.0000 
      25 H4        -2.3527   -1.6822    3.4288 H         1 YZ9900      0.0000 
      26 HO4       -4.5045   -1.5439    2.9527 H         1 YZ9900      0.0000 
      27 H10       -4.1042    1.8517    1.7227 H         1 YZ9900      0.0000 
@<TRIPOS>BOND
       1       13       17 1        
       2        7       17 ar       
       3        7       10 ar       
       4        8       10 ar       
       5        8       11 ar       
       6       14       11 2        
       7       17       15 ar       
       8       10        9 ar       
       9       11       16 ar       
      10        2        4 1        
      11        2        1 1        
      12       15        5 ar       
      13        9        5 ar       
      14        9        6 ar       
      15       16        6 ar       
      16       16       12 1        
      17        4       12 1        
      18       12        3 2        
      19       18        1 1        
      20       19        1 1        
      21       20        1 1        
      22       21        2 1        
      23       22        2 1        
      24       23        5 1        
      25       24        6 1        
      26       25        7 1        
      27       26       13 1        
      28       27       15 1        
@<TRIPOS>SUBSTRUCTURE
 1 YZ9900 10 RESIDUE 4 A YZ9900 0 ROOT

