#        scan_R01_S0093_C0000_L00001_S0001_C0003_G0010_E0001.mol2
#        Mon Jun 19 14:15:27 2017
#        Descriptor:     27    36    21     1     3     5
#        Energy - RMSD - RMSD MassCentre:     -47.9679    999.9999    999.9999
#        Receptor:       1  Surface Point:    93  Conformer:     0
#        Ligand:         1  Surface Point:     1  Conformer:     3
#        BUDE Formal Charge: 0
#        ATOM Count: 27
#        Heavy ATOM Count: 17
@<TRIPOS>MOLECULE
pdb1gcz_ligA.pdb_scan_R01_S0093_C0000_L00001_S0001_C0003_G0010_E0001
27 28 1 0 0
SMALL
GASTEIGER
@<TRIPOS>ATOM
       1 C3         5.8506    1.7810    4.2167 C.3       1 YZ9900      0.0513 
       2 C11        5.3265    2.4472    2.9478 C.3       1 YZ9900      0.2089 
       3 O1         3.9484    0.2087    2.9918 O.2       1 YZ9900     -0.2447 
       4 O2         3.8968    2.4136    2.9485 O.3       1 YZ9900     -0.4453 
       5 C6        -0.9563   -1.3513    3.0224 C.ar      1 YZ9900      0.0063 
       6 C5         1.1901   -0.0630    2.9971 C.ar      1 YZ9900      0.0160 
       7 C4        -2.4264    1.0148    2.9759 C.ar      1 YZ9900      0.0796 
       8 O3        -0.3913    2.3059    2.9506 O.2       1 YZ9900     -0.4208 
       9 C2        -0.2887   -0.1222    2.9982 C.ar      1 YZ9900      0.0353 
      10 C1        -1.0273    1.0668    2.9749 C.ar      1 YZ9900      0.1519 
      11 C7         1.0008    2.3564    2.9496 C.ar      1 YZ9900      0.3521 
      12 C12        3.2918    1.2069    2.9722 C.2       1 YZ9900      0.3476 
      13 O4        -4.4699   -0.2125    3.0000 O.3       1 YZ9900     -0.2865 
      14 O5         1.5378    3.4516    2.9281 O.2       1 YZ9900     -0.2442 
      15 C10       -2.3556   -1.3975    3.0233 C.ar      1 YZ9900      0.0422 
      16 C9         1.8144    1.1205    2.9739 C.ar      1 YZ9900      0.1515 
      17 C8        -3.1000   -0.2122    3.0000 C.ar      1 YZ9900      0.1988 
      18 H31        5.5226    0.7439    4.2430 H         1 YZ9900      0.0000 
      19 H32        6.9379    1.8185    4.2226 H         1 YZ9900      0.0000 
      20 H33        5.4643    2.3065    5.0875 H         1 YZ9900      0.0000 
      21 H112       5.7007    1.9141    2.0764 H         1 YZ9900      0.0000 
      22 H113       5.6642    3.4809    2.9141 H         1 YZ9900      0.0000 
      23 H6        -0.3931   -2.2726    3.0405 H         1 YZ9900      0.0000 
      24 H5         1.7509   -0.9858    3.0152 H         1 YZ9900      0.0000 
      25 H4        -2.9920    1.9348    2.9578 H         1 YZ9900      0.0000 
      26 HO4       -4.8175    0.6931    3.0000 H         1 YZ9900      0.0000 
      27 H10       -2.8466   -2.3592    3.0422 H         1 YZ9900      0.0000 
@<TRIPOS>BOND
       1       13       17 1        
       2        7       17 ar       
       3        7       10 ar       
       4        8       10 ar       
       5        8       11 ar       
       6       14       11 2        
       7       17       15 ar       
       8       10        9 ar       
       9       11       16 ar       
      10        2        4 1        
      11        2        1 1        
      12       15        5 ar       
      13        9        5 ar       
      14        9        6 ar       
      15       16        6 ar       
      16       16       12 1        
      17        4       12 1        
      18       12        3 2        
      19       18        1 1        
      20       19        1 1        
      21       20        1 1        
      22       21        2 1        
      23       22        2 1        
      24       23        5 1        
      25       24        6 1        
      26       25        7 1        
      27       26       13 1        
      28       27       15 1        
@<TRIPOS>SUBSTRUCTURE
 1 YZ9900 10 RESIDUE 4 A YZ9900 0 ROOT

