#        scan_R01_S0094_C0000_L00001_S0001_C0000_G0010_E0001.mol2
#        Mon Jun 19 14:43:31 2017
#        Descriptor:      5    24    14     1     1     4
#        Energy - RMSD - RMSD MassCentre:     -32.2377    999.9999    999.9999
#        Receptor:       1  Surface Point:    94  Conformer:     0
#        Ligand:         1  Surface Point:     1  Conformer:     0
#        BUDE Formal Charge: 0
#        ATOM Count: 27
#        Heavy ATOM Count: 17
@<TRIPOS>MOLECULE
pdb1gcz_ligA.pdb_scan_R01_S0094_C0000_L00001_S0001_C0000_G0010_E0001
27 28 1 0 0
SMALL
GASTEIGER
@<TRIPOS>ATOM
       1 C3         3.7886   -0.7909    0.2503 C.3       1 YZ9900      0.0513 
       2 C11        2.9470   -1.3860    1.3428 C.3       1 YZ9900      0.2089 
       3 O1         1.3115    1.5891    1.7674 O.2       1 YZ9900     -0.2447 
       4 O2         2.4436   -0.3040    2.2241 O.3       1 YZ9900     -0.4453 
       5 C6        -3.5180   -0.2041    0.7632 C.ar      1 YZ9900      0.0063 
       6 C5        -1.1321    0.2280    1.4565 C.ar      1 YZ9900      0.0160 
       7 C4        -3.6259   -2.4464    2.6581 C.ar      1 YZ9900      0.0796 
       8 O3        -1.3474   -1.9440    3.2452 O.2       1 YZ9900     -0.4208 
       9 C2        -2.4050   -0.5494    1.5662 C.ar      1 YZ9900      0.0353 
      10 C1        -2.4771   -1.6432    2.4826 C.ar      1 YZ9900      0.1519 
      11 C7        -0.1977   -1.3219    3.1153 C.ar      1 YZ9900      0.3521 
      12 C12        1.3033    0.4274    2.0407 C.2       1 YZ9900      0.3476 
      13 O4        -5.8686   -2.7540    1.8979 O.3       1 YZ9900     -0.2865 
      14 O5         0.7042   -1.6779    3.7623 O.2       1 YZ9900     -0.2442 
      15 C10       -4.7021   -0.9855    0.9002 C.ar      1 YZ9900      0.0422 
      16 C9        -0.0498   -0.2042    2.1739 C.ar      1 YZ9900      0.1515 
      17 C8        -4.7216   -2.0575    1.8211 C.ar      1 YZ9900      0.1988 
      18 H31        3.1935   -0.0770   -0.3195 H         1 YZ9900      0.0000 
      19 H32        4.6456   -0.2803    0.6895 H         1 YZ9900      0.0000 
      20 H33        4.1377   -1.5832   -0.4117 H         1 YZ9900      0.0000 
      21 H112       3.5497   -2.0804    1.9282 H         1 YZ9900      0.0000 
      22 H113       2.1036   -1.9183    0.9029 H         1 YZ9900      0.0000 
      23 H6        -3.4718    0.6229    0.0704 H         1 YZ9900      0.0000 
      24 H5        -1.0688    1.1049    0.8294 H         1 YZ9900      0.0000 
      25 H4        -3.6733   -3.2712    3.3537 H         1 YZ9900      0.0000 
      26 HO4       -5.9789   -3.2787    1.1016 H         1 YZ9900      0.0000 
      27 H10       -5.5757   -0.7607    0.3063 H         1 YZ9900      0.0000 
@<TRIPOS>BOND
       1       13       17 1        
       2        7       17 ar       
       3        7       10 ar       
       4        8       10 ar       
       5        8       11 ar       
       6       14       11 2        
       7       17       15 ar       
       8       10        9 ar       
       9       11       16 ar       
      10        2        4 1        
      11        2        1 1        
      12       15        5 ar       
      13        9        5 ar       
      14        9        6 ar       
      15       16        6 ar       
      16       16       12 1        
      17        4       12 1        
      18       12        3 2        
      19       18        1 1        
      20       19        1 1        
      21       20        1 1        
      22       21        2 1        
      23       22        2 1        
      24       23        5 1        
      25       24        6 1        
      26       25        7 1        
      27       26       13 1        
      28       27       15 1        
@<TRIPOS>SUBSTRUCTURE
 1 YZ9900 10 RESIDUE 4 A YZ9900 0 ROOT

