#        scan_R01_S0094_C0000_L00001_S0001_C0000_G0010_E0001.mol2
#        Mon Jun 19 14:15:27 2017
#        Descriptor:      3    12    11     3     2     4
#        Energy - RMSD - RMSD MassCentre:     -33.3091    999.9999    999.9999
#        Receptor:       1  Surface Point:    94  Conformer:     0
#        Ligand:         1  Surface Point:     1  Conformer:     0
#        BUDE Formal Charge: 0
#        ATOM Count: 27
#        Heavy ATOM Count: 17
@<TRIPOS>MOLECULE
pdb1gcz_ligA.pdb_scan_R01_S0094_C0000_L00001_S0001_C0000_G0010_E0001
27 28 1 0 0
SMALL
GASTEIGER
@<TRIPOS>ATOM
       1 C3         4.8429    0.5243    5.3156 C.3       1 YZ9900      0.0513 
       2 C11        3.6912    1.2689    4.7031 C.3       1 YZ9900      0.2089 
       3 O1         4.4573    0.0085    1.6160 O.2       1 YZ9900     -0.2447 
       4 O2         3.9442    1.4663    3.2547 O.3       1 YZ9900     -0.4453 
       5 C6        -0.1362   -2.3821    0.7598 C.ar      1 YZ9900      0.0063 
       6 C5         1.8018   -0.8947    1.3856 C.ar      1 YZ9900      0.0160 
       7 C4        -1.9682   -0.1344    1.2306 C.ar      1 YZ9900      0.0796 
       8 O3        -0.0473    1.1949    1.8066 O.2       1 YZ9900     -0.4208 
       9 C2         0.3380   -1.1139    1.1716 C.ar      1 YZ9900      0.0353 
      10 C1        -0.5688   -0.0326    1.3949 C.ar      1 YZ9900      0.1519 
      11 C7         1.2246    1.3914    2.0695 C.ar      1 YZ9900      0.3521 
      12 C12        3.6325    0.5931    2.2502 C.2       1 YZ9900      0.3476 
      13 O4        -3.7097   -1.6548    0.6320 O.3       1 YZ9900     -0.2865 
      14 O5         1.5579    2.4393    2.4562 O.2       1 YZ9900     -0.2442 
      15 C10       -1.5416   -2.5385    0.5818 C.ar      1 YZ9900      0.0422 
      16 C9         2.2058    0.3144    1.8835 C.ar      1 YZ9900      0.1515 
      17 C8        -2.3961   -1.4373    0.8162 C.ar      1 YZ9900      0.1988 
      18 H31        4.9645   -0.4352    4.8127 H         1 YZ9900      0.0000 
      19 H32        5.7549    1.1108    5.2040 H         1 YZ9900      0.0000 
      20 H33        4.6455    0.3573    6.3744 H         1 YZ9900      0.0000 
      21 H112       3.5863    2.2390    5.1891 H         1 YZ9900      0.0000 
      22 H113       2.7746    0.6944    4.8369 H         1 YZ9900      0.0000 
      23 H6         0.5434   -3.2032    0.5864 H         1 YZ9900      0.0000 
      24 H5         2.5192   -1.6680    1.1541 H         1 YZ9900      0.0000 
      25 H4        -2.6476    0.6878    1.4003 H         1 YZ9900      0.0000 
      26 HO4       -4.0432   -2.2166    1.3354 H         1 YZ9900      0.0000 
      27 H10       -1.9496   -3.4889    0.2708 H         1 YZ9900      0.0000 
@<TRIPOS>BOND
       1       13       17 1        
       2        7       17 ar       
       3        7       10 ar       
       4        8       10 ar       
       5        8       11 ar       
       6       14       11 2        
       7       17       15 ar       
       8       10        9 ar       
       9       11       16 ar       
      10        2        4 1        
      11        2        1 1        
      12       15        5 ar       
      13        9        5 ar       
      14        9        6 ar       
      15       16        6 ar       
      16       16       12 1        
      17        4       12 1        
      18       12        3 2        
      19       18        1 1        
      20       19        1 1        
      21       20        1 1        
      22       21        2 1        
      23       22        2 1        
      24       23        5 1        
      25       24        6 1        
      26       25        7 1        
      27       26       13 1        
      28       27       15 1        
@<TRIPOS>SUBSTRUCTURE
 1 YZ9900 10 RESIDUE 4 A YZ9900 0 ROOT

