#        scan_R01_S0095_C0000_L00001_S0001_C0000_G0010_E0001.mol2
#        Mon Jun 19 14:43:33 2017
#        Descriptor:     15    23     1     1     3     5
#        Energy - RMSD - RMSD MassCentre:     -41.0771    999.9999    999.9999
#        Receptor:       1  Surface Point:    95  Conformer:     0
#        Ligand:         1  Surface Point:     1  Conformer:     0
#        BUDE Formal Charge: 0
#        ATOM Count: 27
#        Heavy ATOM Count: 17
@<TRIPOS>MOLECULE
pdb1gcz_ligA.pdb_scan_R01_S0095_C0000_L00001_S0001_C0000_G0010_E0001
27 28 1 0 0
SMALL
GASTEIGER
@<TRIPOS>ATOM
       1 C3        -5.6686    2.9333    2.2916 C.3       1 YZ9900      0.0513 
       2 C11       -4.2289    3.3306    2.4502 C.3       1 YZ9900      0.2089 
       3 O1        -3.8423    1.0865    5.0036 O.2       1 YZ9900     -0.2447 
       4 O2        -3.7743    3.0043    3.8241 O.3       1 YZ9900     -0.4453 
       5 C6        -0.0163   -1.7364    2.7805 C.ar      1 YZ9900      0.0063 
       6 C5        -1.6360   -0.0042    3.6387 C.ar      1 YZ9900      0.0160 
       7 C4         1.8890    0.4086    2.1489 C.ar      1 YZ9900      0.0796 
       8 O3         0.2697    1.9746    2.9941 O.2       1 YZ9900     -0.4208 
       9 C2        -0.3181   -0.3780    3.0385 C.ar      1 YZ9900      0.0353 
      10 C1         0.6220    0.6512    2.7248 C.ar      1 YZ9900      0.1519 
      11 C7        -0.9075    2.3329    3.4539 C.ar      1 YZ9900      0.3521 
      12 C12       -3.2659    1.8081    4.2479 C.2       1 YZ9900      0.3476 
      13 O4         3.3180   -1.3319    1.3545 O.3       1 YZ9900     -0.2865 
      14 O5        -1.1260    3.4685    3.6003 O.2       1 YZ9900     -0.2442 
      15 C10        1.2494   -2.0350    2.1973 C.ar      1 YZ9900      0.0422 
      16 C9        -1.9276    1.3260    3.7744 C.ar      1 YZ9900      0.1515 
      17 C8         2.1436   -0.9801    1.9056 C.ar      1 YZ9900      0.1988 
      18 H31       -5.7754    1.8664    2.4882 H         1 YZ9900      0.0000 
      19 H32       -6.2802    3.4955    2.9973 H         1 YZ9900      0.0000 
      20 H33       -5.9953    3.1500    1.2746 H         1 YZ9900      0.0000 
      21 H112      -4.1268    4.4022    2.2787 H         1 YZ9900      0.0000 
      22 H113      -3.6201    2.7873    1.7274 H         1 YZ9900      0.0000 
      23 H6        -0.7208   -2.5198    3.0175 H         1 YZ9900      0.0000 
      24 H5        -2.3371   -0.7619    3.9558 H         1 YZ9900      0.0000 
      25 H4         2.5950    1.1917    1.9154 H         1 YZ9900      0.0000 
      26 HO4        3.1742   -1.6199    0.4501 H         1 YZ9900      0.0000 
      27 H10        1.5224   -3.0571    1.9802 H         1 YZ9900      0.0000 
@<TRIPOS>BOND
       1       13       17 1        
       2        7       17 ar       
       3        7       10 ar       
       4        8       10 ar       
       5        8       11 ar       
       6       14       11 2        
       7       17       15 ar       
       8       10        9 ar       
       9       11       16 ar       
      10        2        4 1        
      11        2        1 1        
      12       15        5 ar       
      13        9        5 ar       
      14        9        6 ar       
      15       16        6 ar       
      16       16       12 1        
      17        4       12 1        
      18       12        3 2        
      19       18        1 1        
      20       19        1 1        
      21       20        1 1        
      22       21        2 1        
      23       22        2 1        
      24       23        5 1        
      25       24        6 1        
      26       25        7 1        
      27       26       13 1        
      28       27       15 1        
@<TRIPOS>SUBSTRUCTURE
 1 YZ9900 10 RESIDUE 4 A YZ9900 0 ROOT

