#        1GCZ_R01_S0001_C0000_L00005_S0001_C0017_G0010_E0001.mol2
#        Tue Jun  6 14:06:08 2017
#        Descriptor:     19     3    33    12     8    14
#        Energy - RMSD - RMSD MassCentre:     -55.3181    999.9999    999.9999
#        Receptor:       1  Surface Point:     1  Conformer:     0
#        Ligand:         5  Surface Point:     1  Conformer:    17
#        BUDE Formal Charge: 0
#        ATOM Count: 55
#        Heavy ATOM Count: 30
@<TRIPOS>MOLECULE
ZINC61464195_1GCZ_R01_S0001_C0000_L00005_S0001_C0017_G0010_E0001
 55 56 0 0 0
SMALL
USER_CHARGES
@<TRIPOS>ATOM
       1 C1        -1.5346    1.0598   -0.1355 C.3       1 <0>        -0.1456 
       2 C2        -0.9996   -0.2642    0.4026 C.3       1 <0>        -0.0579 
       3 C3         0.2222   -0.6870   -0.4081 C.3       1 <0>        -0.1456 
       4 C4        -0.6079   -0.0963    1.8510 C.ar      1 <0>        -0.0771 
       5 C5        -1.2601   -0.8789    2.8112 C.ar      1 <0>        -0.0943 
       6 C6        -0.8534   -0.8216    4.1495 C.ar      1 <0>        -0.0923 
       7 C7         0.2060    0.0083    4.5353 C.ar      1 <0>        -0.1041 
       8 C8         0.8294    0.8334    3.5918 C.ar      1 <0>        -0.1315 
       9 C9         0.3943    0.7955    2.2618 C.ar      1 <0>        -0.0969 
      10 S1         0.7480    0.0147    6.2203 S.3       1 <0>        -0.0341 
      11 C10        2.0471   -1.2404    6.4433 C.3       1 <0>        -0.1267 
      12 C11        3.2204   -0.9130    5.5510 C.2       1 <0>         0.4864 
      13 O1         3.3730   -1.5025    4.5228 O.2       1 <0>        -0.4815 
      14 O2         4.0978    0.0463    5.9150 O.3       1 <0>        -0.3231 
      15 C12        3.8741    0.7245    7.1539 C.3       1 <0>         0.0526 
      16 C13        4.9616    1.7499    7.3689 C.2       1 <0>         0.5250 
      17 O3         4.6687    2.9363    7.5085 O.2       1 <0>        -0.5082 
      18 N1         6.2358    1.3710    7.4072 N.am      1 <0>        -0.5981 
      19 C14        7.2932    2.3704    7.6166 C.3       1 <0>         0.0731 
      20 C15        6.5859   -0.0470    7.2405 C.3       1 <0>         0.1010 
      21 C16        7.6513   -0.4227    8.2424 C.2       1 <0>         0.4997 
      22 O4         8.6802   -0.9812    7.8651 O.2       1 <0>        -0.5061 
      23 N2         7.4766   -0.1495    9.5323 N.am      1 <0>        -0.6702 
      24 C17        8.4750   -0.5015   10.4711 C.ar      1 <0>         0.1553 
      25 C18        8.1125   -1.0636   11.7010 C.ar      1 <0>        -0.1106 
      26 C19        9.1041   -1.4170   12.6239 C.ar      1 <0>        -0.0959 
      27 C20       10.4527   -1.2031   12.3251 C.ar      1 <0>        -0.1208 
      28 C21       10.8155   -0.6286   11.1010 C.ar      1 <0>        -0.0919 
      29 C22        9.8254   -0.2821   10.1739 C.ar      1 <0>        -0.0639 
      30 Cl1       10.2719    0.4358    8.6531 Cl        1 <0>        -0.0632 
      31 H1        -0.7584    1.8190   -0.0661 H         1 <0>         0.0596 
      32 H2        -1.8294    0.9355   -1.1754 H         1 <0>         0.0563 
      33 H3        -2.3971    1.3674    0.4523 H         1 <0>         0.0575 
      34 H4        -1.7709   -1.0272    0.3222 H         1 <0>         0.0784 
      35 H5         0.5952   -1.6371   -0.0316 H         1 <0>         0.0596 
      36 H6         0.9979    0.0702   -0.3155 H         1 <0>         0.0574 
      37 H7        -0.0571   -0.7950   -1.4541 H         1 <0>         0.0563 
      38 H8        -2.0661   -1.5423    2.5342 H         1 <0>         0.1285 
      39 H9        -1.3217   -1.4092    4.9254 H         1 <0>         0.1293 
      40 H10        1.6328    1.4824    3.9077 H         1 <0>         0.1227 
      41 H11        0.8618    1.4645    1.5545 H         1 <0>         0.1262 
      42 H12        2.3723   -1.2461    7.4816 H         1 <0>         0.1329 
      43 H13        1.6545   -2.2203    6.1801 H         1 <0>         0.1329 
      44 H14        3.8887    0.0048    7.9699 H         1 <0>         0.1063 
      45 H15        2.9073    1.2227    7.1262 H         1 <0>         0.1054 
      46 H16        7.1449    2.8586    8.5776 H         1 <0>         0.0686 
      47 H17        8.2636    1.8786    7.6047 H         1 <0>         0.0794 
      48 H18        7.2523    3.1126    6.8220 H         1 <0>         0.0778 
      49 H19        5.7016   -0.6597    7.4035 H         1 <0>         0.1198 
      50 H20        6.9609   -0.2111    6.2324 H         1 <0>         0.1233 
      51 H21        6.6313    0.3092    9.8410 H         1 <0>         0.4142 
      52 H22        7.0722   -1.2310   11.9380 H         1 <0>         0.1473 
      53 H23        8.8229   -1.8575   13.5691 H         1 <0>         0.1337 
      54 H24       11.2174   -1.4795   13.0356 H         1 <0>         0.1349 
      55 H25       11.8566   -0.4567   10.8711 H         1 <0>         0.1385 
@<TRIPOS>BOND
       1        1        2 1        
       2        1       31 1        
       3        1       32 1        
       4        1       33 1        
       5        2        3 1        
       6        2        4 1        
       7        2       34 1        
       8        3       35 1        
       9        3       36 1        
      10        3       37 1        
      11        4        9 ar       
      12        4        5 ar       
      13        5        6 ar       
      14        5       38 1        
      15        6        7 ar       
      16        6       39 1        
      17        7        8 ar       
      18        7       10 1        
      19        8        9 ar       
      20        8       40 1        
      21        9       41 1        
      22       10       11 1        
      23       11       12 1        
      24       11       42 1        
      25       11       43 1        
      26       12       13 2        
      27       12       14 1        
      28       14       15 1        
      29       15       16 1        
      30       15       44 1        
      31       15       45 1        
      32       16       17 2        
      33       16       18 am       
      34       18       19 1        
      35       18       20 1        
      36       19       46 1        
      37       19       47 1        
      38       19       48 1        
      39       20       21 1        
      40       20       49 1        
      41       20       50 1        
      42       21       22 2        
      43       21       23 am       
      44       23       24 1        
      45       23       51 1        
      46       24       29 ar       
      47       24       25 ar       
      48       25       26 ar       
      49       25       52 1        
      50       26       27 ar       
      51       26       53 1        
      52       27       28 ar       
      53       27       54 1        
      54       28       29 ar       
      55       28       55 1        
      56       29       30 1        

