#        scan_R01_S0095_C0000_L00001_S0001_C0000_G0010_E0001.mol2
#        Mon Jun 19 14:15:29 2017
#        Descriptor:     15    23    36     1     3     5
#        Energy - RMSD - RMSD MassCentre:     -38.5978    999.9999    999.9999
#        Receptor:       1  Surface Point:    95  Conformer:     0
#        Ligand:         1  Surface Point:     1  Conformer:     0
#        BUDE Formal Charge: 0
#        ATOM Count: 27
#        Heavy ATOM Count: 17
@<TRIPOS>MOLECULE
pdb1gcz_ligA.pdb_scan_R01_S0095_C0000_L00001_S0001_C0000_G0010_E0001
27 28 1 0 0
SMALL
GASTEIGER
@<TRIPOS>ATOM
       1 C3        -5.2620    3.7146    2.2916 C.3       1 YZ9900      0.0513 
       2 C11       -3.7751    3.8559    2.4502 C.3       1 YZ9900      0.2089 
       3 O1        -3.7841    1.5787    5.0036 O.2       1 YZ9900     -0.2447 
       4 O2        -3.3841    3.4556    3.8241 O.3       1 YZ9900     -0.4453 
       5 C6        -0.5065   -1.8656    2.7805 C.ar      1 YZ9900      0.0063 
       6 C5        -1.8007    0.1214    3.6387 C.ar      1 YZ9900      0.0160 
       7 C4         1.7424   -0.0841    2.1489 C.ar      1 YZ9900      0.0796 
       8 O3         0.4197    1.7393    2.9941 O.2       1 YZ9900     -0.4208 
       9 C2        -0.5678   -0.4755    3.0385 C.ar      1 YZ9900      0.0353 
      10 C1         0.5368    0.3748    2.7248 C.ar      1 YZ9900      0.1519 
      11 C7        -0.6774    2.2966    3.4539 C.ar      1 YZ9900      0.3521 
      12 C12       -3.0911    2.1893    4.2479 C.2       1 YZ9900      0.3476 
      13 O4         2.8475   -2.0463    1.3545 O.3       1 YZ9900     -0.2865 
      14 O5        -0.6955    3.4528    3.6003 O.2       1 YZ9900     -0.2442 
      15 C10        0.6882   -2.3795    2.1973 C.ar      1 YZ9900      0.0422 
      16 C9        -1.8569    1.4821    3.7744 C.ar      1 YZ9900      0.1515 
      17 C8         1.7520   -1.4959    1.9056 C.ar      1 YZ9900      0.1988 
      18 H31       -5.5524    2.6825    2.4882 H         1 YZ9900      0.0000 
      19 H32       -5.7666    4.3745    2.9973 H         1 YZ9900      0.0000 
      20 H33       -5.5461    3.9848    1.2746 H         1 YZ9900      0.0000 
      21 H112      -3.4885    4.8935    2.2787 H         1 YZ9900      0.0000 
      22 H113      -3.2700    3.2152    1.7274 H         1 YZ9900      0.0000 
      23 H6        -1.3362   -2.5148    3.0175 H         1 YZ9900      0.0000 
      24 H5        -2.6227   -0.5030    3.9558 H         1 YZ9900      0.0000 
      25 H4         2.5737    0.5646    1.9154 H         1 YZ9900      0.0000 
      26 HO4        2.6558   -2.3049    0.4501 H         1 YZ9900      0.0000 
      27 H10        0.7796   -3.4335    1.9802 H         1 YZ9900      0.0000 
@<TRIPOS>BOND
       1       13       17 1        
       2        7       17 ar       
       3        7       10 ar       
       4        8       10 ar       
       5        8       11 ar       
       6       14       11 2        
       7       17       15 ar       
       8       10        9 ar       
       9       11       16 ar       
      10        2        4 1        
      11        2        1 1        
      12       15        5 ar       
      13        9        5 ar       
      14        9        6 ar       
      15       16        6 ar       
      16       16       12 1        
      17        4       12 1        
      18       12        3 2        
      19       18        1 1        
      20       19        1 1        
      21       20        1 1        
      22       21        2 1        
      23       22        2 1        
      24       23        5 1        
      25       24        6 1        
      26       25        7 1        
      27       26       13 1        
      28       27       15 1        
@<TRIPOS>SUBSTRUCTURE
 1 YZ9900 10 RESIDUE 4 A YZ9900 0 ROOT

