#        scan_R01_S0095_C0000_L00001_S0001_C0002_G0010_E0001.mol2
#        Mon Jun 19 14:43:34 2017
#        Descriptor:     12    35    30     3     3     5
#        Energy - RMSD - RMSD MassCentre:     -40.6220    999.9999    999.9999
#        Receptor:       1  Surface Point:    95  Conformer:     0
#        Ligand:         1  Surface Point:     1  Conformer:     2
#        BUDE Formal Charge: 0
#        ATOM Count: 27
#        Heavy ATOM Count: 17
@<TRIPOS>MOLECULE
pdb1gcz_ligA.pdb_scan_R01_S0095_C0000_L00001_S0001_C0002_G0010_E0001
27 28 1 0 0
SMALL
GASTEIGER
@<TRIPOS>ATOM
       1 C3        -3.3489    6.9088    3.9044 C.3       1 YZ9900      0.0513 
       2 C11       -3.5882    5.5867    3.1811 C.3       1 YZ9900      0.2089 
       3 O1        -3.4251    3.1838    2.1267 O.2       1 YZ9900     -0.2447 
       4 O2        -2.4259    4.7620    3.3003 O.3       1 YZ9900     -0.4453 
       5 C6        -0.0646   -0.6983    1.7699 C.ar      1 YZ9900      0.0063 
       6 C5        -1.2725    1.4420    2.2470 C.ar      1 YZ9900      0.0160 
       7 C4         2.1720    0.2034    3.1648 C.ar      1 YZ9900      0.0796 
       8 O3         1.0571    2.2835    3.6541 O.2       1 YZ9900     -0.4208 
       9 C2        -0.0809    0.5711    2.3574 C.ar      1 YZ9900      0.0353 
      10 C1         1.0430    1.0243    3.0583 C.ar      1 YZ9900      0.1519 
      11 C7        -0.0669    3.0994    3.5475 C.ar      1 YZ9900      0.3521 
      12 C12       -2.4515    3.5439    2.7187 C.2       1 YZ9900      0.3476 
      13 O4         3.3216   -1.8349    2.7102 O.3       1 YZ9900     -0.2865 
      14 O5        -0.0337    4.1982    4.0765 O.2       1 YZ9900     -0.2442 
      15 C10        1.0671   -1.5152    1.8795 C.ar      1 YZ9900      0.0422 
      16 C9        -1.2729    2.6540    2.8144 C.ar      1 YZ9900      0.1515 
      17 C8         2.1941   -1.0679    2.5791 C.ar      1 YZ9900      0.1988 
      18 H31       -2.5042    7.4225    3.4498 H         1 YZ9900      0.0000 
      19 H32       -4.2379    7.5309    3.8250 H         1 YZ9900      0.0000 
      20 H33       -3.1341    6.7142    4.9530 H         1 YZ9900      0.0000 
      21 H112      -3.7892    5.7790    2.1293 H         1 YZ9900      0.0000 
      22 H113      -4.4403    5.0778    3.6267 H         1 YZ9900      0.0000 
      23 H6        -0.9280   -1.0546    1.2276 H         1 YZ9900      0.0000 
      24 H5        -2.1345    1.0832    1.7042 H         1 YZ9900      0.0000 
      25 H4         3.0367    0.5573    3.7066 H         1 YZ9900      0.0000 
      26 HO4        4.0070   -1.3626    3.2083 H         1 YZ9900      0.0000 
      27 H10        1.0540   -2.4909    1.4168 H         1 YZ9900      0.0000 
@<TRIPOS>BOND
       1       13       17 1        
       2        7       17 ar       
       3        7       10 ar       
       4        8       10 ar       
       5        8       11 ar       
       6       14       11 2        
       7       17       15 ar       
       8       10        9 ar       
       9       11       16 ar       
      10        2        4 1        
      11        2        1 1        
      12       15        5 ar       
      13        9        5 ar       
      14        9        6 ar       
      15       16        6 ar       
      16       16       12 1        
      17        4       12 1        
      18       12        3 2        
      19       18        1 1        
      20       19        1 1        
      21       20        1 1        
      22       21        2 1        
      23       22        2 1        
      24       23        5 1        
      25       24        6 1        
      26       25        7 1        
      27       26       13 1        
      28       27       15 1        
@<TRIPOS>SUBSTRUCTURE
 1 YZ9900 10 RESIDUE 4 A YZ9900 0 ROOT

