#        scan_R01_S0095_C0000_L00001_S0001_C0002_G0010_E0001.mol2
#        Mon Jun 19 14:15:30 2017
#        Descriptor:     11    35    28     2     3     5
#        Energy - RMSD - RMSD MassCentre:     -37.3951    999.9999    999.9999
#        Receptor:       1  Surface Point:    95  Conformer:     0
#        Ligand:         1  Surface Point:     1  Conformer:     2
#        BUDE Formal Charge: 0
#        ATOM Count: 27
#        Heavy ATOM Count: 17
@<TRIPOS>MOLECULE
pdb1gcz_ligA.pdb_scan_R01_S0095_C0000_L00001_S0001_C0002_G0010_E0001
27 28 1 0 0
SMALL
GASTEIGER
@<TRIPOS>ATOM
       1 C3        -2.1133    8.0056    4.0489 C.3       1 YZ9900      0.0513 
       2 C11       -2.8639    6.8040    3.4821 C.3       1 YZ9900      0.2089 
       3 O1        -3.6242    4.4399    2.6188 O.2       1 YZ9900     -0.2447 
       4 O2        -2.0075    5.6589    3.4945 O.3       1 YZ9900     -0.4453 
       5 C6        -1.7243   -0.3140    2.0885 C.ar      1 YZ9900      0.0063 
       6 C5        -2.1204    2.1124    2.5608 C.ar      1 YZ9900      0.0160 
       7 C4         0.8819   -0.1202    3.0536 C.ar      1 YZ9900      0.0796 
       8 O3         0.5564    2.2202    3.5291 O.2       1 YZ9900     -0.4208 
       9 C2        -1.2521    0.9139    2.5641 C.ar      1 YZ9900      0.0353 
      10 C1         0.0575    1.0114    3.0490 C.ar      1 YZ9900      0.1519 
      11 C7        -0.2647    3.3454    3.5240 C.ar      1 YZ9900      0.3521 
      12 C12       -2.5022    4.4931    3.0267 C.2       1 YZ9900      0.3476 
      13 O4         1.2584   -2.4307    2.6036 O.3       1 YZ9900     -0.2865 
      14 O5         0.1917    4.3940    3.9488 O.2       1 YZ9900     -0.2442 
      15 C10       -0.8957   -1.4424    2.0954 C.ar      1 YZ9900      0.0422 
      16 C9        -1.6543    3.2801    3.0190 C.ar      1 YZ9900      0.1515 
      17 C8         0.4148   -1.3516    2.5790 C.ar      1 YZ9900      0.1988 
      18 H31       -1.2409    8.2113    3.4319 H         1 YZ9900      0.0000 
      19 H32       -2.7692    8.8736    4.0517 H         1 YZ9900      0.0000 
      20 H33       -1.7955    7.7870    5.0661 H         1 YZ9900      0.0000 
      21 H112      -3.1701    7.0160    2.4597 H         1 YZ9900      0.0000 
      22 H113      -3.7434    6.6049    4.0907 H         1 YZ9900      0.0000 
      23 H6        -2.7335   -0.3968    1.7128 H         1 YZ9900      0.0000 
      24 H5        -3.1292    2.0268    2.1847 H         1 YZ9900      0.0000 
      25 H4         1.8915   -0.0401    3.4288 H         1 YZ9900      0.0000 
      26 HO4        2.1290   -2.1832    2.9527 H         1 YZ9900      0.0000 
      27 H10       -1.2845   -2.3785    1.7227 H         1 YZ9900      0.0000 
@<TRIPOS>BOND
       1       13       17 1        
       2        7       17 ar       
       3        7       10 ar       
       4        8       10 ar       
       5        8       11 ar       
       6       14       11 2        
       7       17       15 ar       
       8       10        9 ar       
       9       11       16 ar       
      10        2        4 1        
      11        2        1 1        
      12       15        5 ar       
      13        9        5 ar       
      14        9        6 ar       
      15       16        6 ar       
      16       16       12 1        
      17        4       12 1        
      18       12        3 2        
      19       18        1 1        
      20       19        1 1        
      21       20        1 1        
      22       21        2 1        
      23       22        2 1        
      24       23        5 1        
      25       24        6 1        
      26       25        7 1        
      27       26       13 1        
      28       27       15 1        
@<TRIPOS>SUBSTRUCTURE
 1 YZ9900 10 RESIDUE 4 A YZ9900 0 ROOT

