#        scan_R01_S0095_C0000_L00001_S0001_C0003_G0010_E0001.mol2
#        Mon Jun 19 14:15:31 2017
#        Descriptor:     11    35    30     3     3     5
#        Energy - RMSD - RMSD MassCentre:     -37.6902    999.9999    999.9999
#        Receptor:       1  Surface Point:    95  Conformer:     0
#        Ligand:         1  Surface Point:     1  Conformer:     3
#        BUDE Formal Charge: 0
#        ATOM Count: 27
#        Heavy ATOM Count: 17
@<TRIPOS>MOLECULE
pdb1gcz_ligA.pdb_scan_R01_S0095_C0000_L00001_S0001_C0003_G0010_E0001
27 28 1 0 0
SMALL
GASTEIGER
@<TRIPOS>ATOM
       1 C3        -4.1712    5.6228    2.0462 C.3       1 YZ9900      0.0513 
       2 C11       -3.6763    5.4745    3.4821 C.3       1 YZ9900      0.2089 
       3 O1        -3.5821    2.9930    2.6188 O.2       1 YZ9900     -0.2447 
       4 O2        -2.4799    4.6913    3.4945 O.3       1 YZ9900     -0.4453 
       5 C6        -0.1709   -0.8245    2.0885 C.ar      1 YZ9900      0.0063 
       6 C5        -1.3730    1.3201    2.5608 C.ar      1 YZ9900      0.0160 
       7 C4         2.2118    0.2490    3.0536 C.ar      1 YZ9900      0.0796 
       8 O3         1.1055    2.3369    3.5291 O.2       1 YZ9900     -0.4208 
       9 C2        -0.1472    0.4908    2.5641 C.ar      1 YZ9900      0.0353 
      10 C1         1.0501    1.0303    3.0490 C.ar      1 YZ9900      0.1519 
      11 C7        -0.0509    3.1134    3.5240 C.ar      1 YZ9900      0.3521 
      12 C12       -2.5460    3.4266    3.0267 C.2       1 YZ9900      0.3476 
      13 O4         3.3559   -1.7934    2.6036 O.3       1 YZ9900     -0.2865 
      14 O5         0.0194    4.2549    3.9488 O.2       1 YZ9900     -0.2442 
      15 C10        0.9937   -1.6015    2.0954 C.ar      1 YZ9900      0.0422 
      16 C9        -1.3344    2.5768    3.0190 C.ar      1 YZ9900      0.1515 
      17 C8         2.1941   -1.0679    2.5790 C.ar      1 YZ9900      0.1988 
      18 H31       -4.3896    4.6393    1.6352 H         1 YZ9900      0.0000 
      19 H32       -5.0740    6.2298    2.0353 H         1 YZ9900      0.0000 
      20 H33       -3.4022    6.1047    1.4462 H         1 YZ9900      0.0000 
      21 H112      -4.4389    4.9799    4.0799 H         1 YZ9900      0.0000 
      22 H113      -3.4694    6.4581    3.8984 H         1 YZ9900      0.0000 
      23 H6        -1.0909   -1.2474    1.7128 H         1 YZ9900      0.0000 
      24 H5        -2.2917    0.8947    2.1847 H         1 YZ9900      0.0000 
      25 H4         3.1332    0.6696    3.4288 H         1 YZ9900      0.0000 
      26 HO4        4.0893   -1.2630    2.9527 H         1 YZ9900      0.0000 
      27 H10        0.9485   -2.6141    1.7227 H         1 YZ9900      0.0000 
@<TRIPOS>BOND
       1       13       17 1        
       2        7       17 ar       
       3        7       10 ar       
       4        8       10 ar       
       5        8       11 ar       
       6       14       11 2        
       7       17       15 ar       
       8       10        9 ar       
       9       11       16 ar       
      10        2        4 1        
      11        2        1 1        
      12       15        5 ar       
      13        9        5 ar       
      14        9        6 ar       
      15       16        6 ar       
      16       16       12 1        
      17        4       12 1        
      18       12        3 2        
      19       18        1 1        
      20       19        1 1        
      21       20        1 1        
      22       21        2 1        
      23       22        2 1        
      24       23        5 1        
      25       24        6 1        
      26       25        7 1        
      27       26       13 1        
      28       27       15 1        
@<TRIPOS>SUBSTRUCTURE
 1 YZ9900 10 RESIDUE 4 A YZ9900 0 ROOT

