#        scan_R01_S0096_C0000_L00001_S0001_C0000_G0010_E0001.mol2
#        Mon Jun 19 14:43:35 2017
#        Descriptor:      6    11    26     1     1     6
#        Energy - RMSD - RMSD MassCentre:     -36.4020    999.9999    999.9999
#        Receptor:       1  Surface Point:    96  Conformer:     0
#        Ligand:         1  Surface Point:     1  Conformer:     0
#        BUDE Formal Charge: 0
#        ATOM Count: 27
#        Heavy ATOM Count: 17
@<TRIPOS>MOLECULE
pdb1gcz_ligA.pdb_scan_R01_S0096_C0000_L00001_S0001_C0000_G0010_E0001
27 28 1 0 0
SMALL
GASTEIGER
@<TRIPOS>ATOM
       1 C3        -4.0149   -1.9188    8.0127 C.3       1 YZ9900      0.0513 
       2 C11       -3.0805   -2.5924    7.0488 C.3       1 YZ9900      0.2089 
       3 O1        -4.4480   -0.8558    4.4373 O.2       1 YZ9900     -0.2447 
       4 O2        -3.6674   -2.5598    5.6867 O.3       1 YZ9900     -0.4453 
       5 C6        -0.0300    1.5115    2.8798 C.ar      1 YZ9900      0.0063 
       6 C5        -1.8635   -0.0006    3.7234 C.ar      1 YZ9900      0.0160 
       7 C4         1.7186   -0.8307    2.5854 C.ar      1 YZ9900      0.0796 
       8 O3        -0.0998   -2.1795    3.3996 O.2       1 YZ9900     -0.4208 
       9 C2        -0.4758    0.2087    3.2066 C.ar      1 YZ9900      0.0353 
      10 C1         0.3894   -0.9183    3.0560 C.ar      1 YZ9900      0.1519 
      11 C7        -1.2885   -2.3791    3.9218 C.ar      1 YZ9900      0.3521 
      12 C12       -3.5385   -1.5524    4.7716 C.2       1 YZ9900      0.3476 
      13 O4         3.3693    0.7152    1.8186 O.3       1 YZ9900     -0.2865 
      14 O5        -1.5894   -3.4642    4.2229 O.2       1 YZ9900     -0.2442 
      15 C10        1.3052    1.6549    2.4023 C.ar      1 YZ9900      0.0422 
      16 C9        -2.2178   -1.2600    4.1250 C.ar      1 YZ9900      0.1515 
      17 C8         2.1209    0.5080    2.2719 C.ar      1 YZ9900      0.1988 
      18 H31       -4.1879   -0.8909    7.6936 H         1 YZ9900      0.0000 
      19 H32       -4.9628   -2.4564    8.0353 H         1 YZ9900      0.0000 
      20 H33       -3.5724   -1.9205    9.0088 H         1 YZ9900      0.0000 
      21 H112      -2.9282   -3.6277    7.3540 H         1 YZ9900      0.0000 
      22 H113      -2.1238   -2.0702    7.0448 H         1 YZ9900      0.0000 
      23 H6        -0.6792    2.3676    2.9883 H         1 YZ9900      0.0000 
      24 H5        -2.5655    0.8182    3.7781 H         1 YZ9900      0.0000 
      25 H4         2.3666   -1.6874    2.4732 H         1 YZ9900      0.0000 
      26 HO4        3.8878    1.1539    2.4970 H         1 YZ9900      0.0000 
      27 H10        1.6900    2.6301    2.1428 H         1 YZ9900      0.0000 
@<TRIPOS>BOND
       1       13       17 1        
       2        7       17 ar       
       3        7       10 ar       
       4        8       10 ar       
       5        8       11 ar       
       6       14       11 2        
       7       17       15 ar       
       8       10        9 ar       
       9       11       16 ar       
      10        2        4 1        
      11        2        1 1        
      12       15        5 ar       
      13        9        5 ar       
      14        9        6 ar       
      15       16        6 ar       
      16       16       12 1        
      17        4       12 1        
      18       12        3 2        
      19       18        1 1        
      20       19        1 1        
      21       20        1 1        
      22       21        2 1        
      23       22        2 1        
      24       23        5 1        
      25       24        6 1        
      26       25        7 1        
      27       26       13 1        
      28       27       15 1        
@<TRIPOS>SUBSTRUCTURE
 1 YZ9900 10 RESIDUE 4 A YZ9900 0 ROOT

