#        scan_R01_S0096_C0000_L00001_S0001_C0002_G0010_E0001.mol2
#        Mon Jun 19 14:15:32 2017
#        Descriptor:     32    18    22     1     1     6
#        Energy - RMSD - RMSD MassCentre:     -37.9787    999.9999    999.9999
#        Receptor:       1  Surface Point:    96  Conformer:     0
#        Ligand:         1  Surface Point:     1  Conformer:     2
#        BUDE Formal Charge: 0
#        ATOM Count: 27
#        Heavy ATOM Count: 17
@<TRIPOS>MOLECULE
pdb1gcz_ligA.pdb_scan_R01_S0096_C0000_L00001_S0001_C0002_G0010_E0001
27 28 1 0 0
SMALL
GASTEIGER
@<TRIPOS>ATOM
       1 C3        -6.2134   -6.2027    3.3695 C.3       1 YZ9900      0.0513 
       2 C11       -4.9366   -5.9580    2.5705 C.3       1 YZ9900      0.2089 
       3 O1        -2.6703   -5.0609    1.5850 O.2       1 YZ9900     -0.2447 
       4 O2        -4.2589   -4.8133    3.0953 O.3       1 YZ9900     -0.4453 
       5 C6         0.7109   -1.2689    2.4090 C.ar      1 YZ9900      0.0063 
       6 C5        -1.2116   -2.8717    2.4578 C.ar      1 YZ9900      0.0160 
       7 C4        -0.3475    0.1326    4.5716 C.ar      1 YZ9900      0.0796 
       8 O3        -2.2212   -1.3805    4.6650 O.2       1 YZ9900     -0.4208 
       9 C2        -0.4927   -1.6900    2.9842 C.ar      1 YZ9900      0.0353 
      10 C1        -1.0246   -0.9858    4.0709 C.ar      1 YZ9900      0.1519 
      11 C7        -2.8941   -2.4934    4.1659 C.ar      1 YZ9900      0.3521 
      12 C12       -3.1002   -4.4404    2.5113 C.2       1 YZ9900      0.3476 
      13 O4         1.4834    1.6585    4.5247 O.3       1 YZ9900     -0.2865 
      14 O5        -3.9402   -2.8222    4.7006 O.2       1 YZ9900     -0.2442 
      15 C10        1.3839   -0.1498    2.9137 C.ar      1 YZ9900      0.0422 
      16 C9        -2.3621   -3.2623    3.0187 C.ar      1 YZ9900      0.1515 
      17 C8         0.8573    0.5587    4.0002 C.ar      1 YZ9900      0.1988 
      18 H31       -6.8661   -5.3364    3.2831 H         1 YZ9900      0.0000 
      19 H32       -6.7221   -7.0814    2.9786 H         1 YZ9900      0.0000 
      20 H33       -5.9606   -6.3643    4.4153 H         1 YZ9900      0.0000 
      21 H112      -5.1890   -5.7822    1.5269 H         1 YZ9900      0.0000 
      22 H113      -4.2884   -6.8285    2.6458 H         1 YZ9900      0.0000 
      23 H6         1.1273   -1.8073    1.5704 H         1 YZ9900      0.0000 
      24 H5        -0.7930   -3.4083    1.6192 H         1 YZ9900      0.0000 
      25 H4        -0.7618    0.6727    5.4102 H         1 YZ9900      0.0000 
      26 HO4        0.9713    2.0327    5.2586 H         1 YZ9900      0.0000 
      27 H10        2.3115    0.1545    2.4516 H         1 YZ9900      0.0000 
@<TRIPOS>BOND
       1       13       17 1        
       2        7       17 ar       
       3        7       10 ar       
       4        8       10 ar       
       5        8       11 ar       
       6       14       11 2        
       7       17       15 ar       
       8       10        9 ar       
       9       11       16 ar       
      10        2        4 1        
      11        2        1 1        
      12       15        5 ar       
      13        9        5 ar       
      14        9        6 ar       
      15       16        6 ar       
      16       16       12 1        
      17        4       12 1        
      18       12        3 2        
      19       18        1 1        
      20       19        1 1        
      21       20        1 1        
      22       21        2 1        
      23       22        2 1        
      24       23        5 1        
      25       24        6 1        
      26       25        7 1        
      27       26       13 1        
      28       27       15 1        
@<TRIPOS>SUBSTRUCTURE
 1 YZ9900 10 RESIDUE 4 A YZ9900 0 ROOT

