#        scan_R01_S0096_C0000_L00001_S0001_C0003_G0010_E0001.mol2
#        Mon Jun 19 14:15:32 2017
#        Descriptor:     11    34     3     1     1     5
#        Energy - RMSD - RMSD MassCentre:     -37.8721    999.9999    999.9999
#        Receptor:       1  Surface Point:    96  Conformer:     0
#        Ligand:         1  Surface Point:     1  Conformer:     3
#        BUDE Formal Charge: 0
#        ATOM Count: 27
#        Heavy ATOM Count: 17
@<TRIPOS>MOLECULE
pdb1gcz_ligA.pdb_scan_R01_S0096_C0000_L00001_S0001_C0003_G0010_E0001
27 28 1 0 0
SMALL
GASTEIGER
@<TRIPOS>ATOM
       1 C3        -5.6795   -6.2039    3.2048 C.3       1 YZ9900      0.0513 
       2 C11       -5.3202   -5.5873    4.5536 C.3       1 YZ9900      0.2089 
       3 O1        -2.9974   -5.5847    3.3222 O.2       1 YZ9900     -0.2447 
       4 O2        -4.5520   -4.3994    4.3442 O.3       1 YZ9900     -0.4453 
       5 C6         0.6744   -2.2576    1.9296 C.ar      1 YZ9900      0.0063 
       6 C5        -1.3669   -3.4000    2.8217 C.ar      1 YZ9900      0.0160 
       7 C4        -0.2575    0.2069    2.8346 C.ar      1 YZ9900      0.0796 
       8 O3        -2.2428   -0.8401    3.7129 O.2       1 YZ9900     -0.4208 
       9 C2        -0.5546   -2.1840    2.5937 C.ar      1 YZ9900      0.0353 
      10 C1        -1.0230   -0.9456    3.0485 C.ar      1 YZ9900      0.1519 
      11 C7        -3.0036   -1.9875    3.9251 C.ar      1 YZ9900      0.3521 
      12 C12       -3.3717   -4.5142    3.6991 C.2       1 YZ9900      0.3476 
      13 O4         1.6865    1.2942    1.9850 O.3       1 YZ9900     -0.2865 
      14 O5        -4.0687   -1.8731    4.5090 O.2       1 YZ9900     -0.2442 
      15 C10        1.4358   -1.1019    1.7184 C.ar      1 YZ9900      0.0422 
      16 C9        -2.5406   -3.3135    3.4585 C.ar      1 YZ9900      0.1515 
      17 C8         0.9731    0.1394    2.1708 C.ar      1 YZ9900      0.1988 
      18 H31       -4.7676   -6.4637    2.6711 H         1 YZ9900      0.0000 
      19 H32       -6.2753   -7.1003    3.3638 H         1 YZ9900      0.0000 
      20 H33       -6.2513   -5.4868    2.6197 H         1 YZ9900      0.0000 
      21 H112      -4.7364   -6.2983    5.1343 H         1 YZ9900      0.0000 
      22 H113      -6.2314   -5.3385    5.0936 H         1 YZ9900      0.0000 
      23 H6         1.0420   -3.2095    1.5760 H         1 YZ9900      0.0000 
      24 H5        -0.9968   -4.3506    2.4670 H         1 YZ9900      0.0000 
      25 H4        -0.6229    1.1601    3.1874 H         1 YZ9900      0.0000 
      26 HO4        1.2098    2.0586    2.3448 H         1 YZ9900      0.0000 
      27 H10        2.3812   -1.1860    1.2031 H         1 YZ9900      0.0000 
@<TRIPOS>BOND
       1       13       17 1        
       2        7       17 ar       
       3        7       10 ar       
       4        8       10 ar       
       5        8       11 ar       
       6       14       11 2        
       7       17       15 ar       
       8       10        9 ar       
       9       11       16 ar       
      10        2        4 1        
      11        2        1 1        
      12       15        5 ar       
      13        9        5 ar       
      14        9        6 ar       
      15       16        6 ar       
      16       16       12 1        
      17        4       12 1        
      18       12        3 2        
      19       18        1 1        
      20       19        1 1        
      21       20        1 1        
      22       21        2 1        
      23       22        2 1        
      24       23        5 1        
      25       24        6 1        
      26       25        7 1        
      27       26       13 1        
      28       27       15 1        
@<TRIPOS>SUBSTRUCTURE
 1 YZ9900 10 RESIDUE 4 A YZ9900 0 ROOT

