#        scan_R01_S0097_C0000_L00001_S0001_C0000_G0010_E0001.mol2
#        Mon Jun 19 14:43:37 2017
#        Descriptor:     35     6    12     1     3     4
#        Energy - RMSD - RMSD MassCentre:     -40.6145    999.9999    999.9999
#        Receptor:       1  Surface Point:    97  Conformer:     0
#        Ligand:         1  Surface Point:     1  Conformer:     0
#        BUDE Formal Charge: 0
#        ATOM Count: 27
#        Heavy ATOM Count: 17
@<TRIPOS>MOLECULE
pdb1gcz_ligA.pdb_scan_R01_S0097_C0000_L00001_S0001_C0000_G0010_E0001
27 28 1 0 0
SMALL
GASTEIGER
@<TRIPOS>ATOM
       1 C3         1.9619    2.8934    5.6983 C.3       1 YZ9900      0.0513 
       2 C11        1.5961    3.0832    4.2540 C.3       1 YZ9900      0.2089 
       3 O1         1.7266   -0.2952    3.7288 O.2       1 YZ9900     -0.2447 
       4 O2         2.0659    1.9163    3.4675 O.3       1 YZ9900     -0.4453 
       5 C6        -3.2354   -0.8689    2.1170 C.ar      1 YZ9900      0.0063 
       6 C5        -0.8713   -0.1737    2.6533 C.ar      1 YZ9900      0.0160 
       7 C4        -3.3057    1.1449   -0.0207 C.ar      1 YZ9900      0.0796 
       8 O3        -1.0482    1.7264    0.5744 O.2       1 YZ9900     -0.4208 
       9 C2        -2.1208   -0.0413    1.8422 C.ar      1 YZ9900      0.0353 
      10 C1        -2.1740    0.9322    0.7978 C.ar      1 YZ9900      0.1519 
      11 C7         0.0333    1.6776    1.3185 C.ar      1 YZ9900      0.3521 
      12 C12        1.3850    0.7488    3.2623 C.2       1 YZ9900      0.3476 
      13 O4        -5.5407    0.3999   -0.4109 O.3       1 YZ9900     -0.2865 
      14 O5         0.9040    2.4163    1.0845 O.2       1 YZ9900     -0.2442 
      15 C10       -4.4042   -0.6926    1.3207 C.ar      1 YZ9900      0.0422 
      16 C9         0.1430    0.7158    2.4231 C.ar      1 YZ9900      0.1515 
      17 C8        -4.4057    0.2849    0.2999 C.ar      1 YZ9900      0.1988 
      18 H31        1.5111    1.9732    6.0700 H         1 YZ9900      0.0000 
      19 H32        3.0460    2.8307    5.7930 H         1 YZ9900      0.0000 
      20 H33        1.5947    3.7388    6.2801 H         1 YZ9900      0.0000 
      21 H112       2.0682    3.9900    3.8758 H         1 YZ9900      0.0000 
      22 H113       0.5136    3.1714    4.1617 H         1 YZ9900      0.0000 
      23 H6        -3.2015   -1.6087    2.9029 H         1 YZ9900      0.0000 
      24 H5        -0.7723   -0.9485    3.3990 H         1 YZ9900      0.0000 
      25 H4        -3.3383    1.8821   -0.8092 H         1 YZ9900      0.0000 
      26 HO4       -6.2223    0.7974    0.1358 H         1 YZ9900      0.0000 
      27 H10       -5.2801   -1.2999    1.4956 H         1 YZ9900      0.0000 
@<TRIPOS>BOND
       1       13       17 1        
       2        7       17 ar       
       3        7       10 ar       
       4        8       10 ar       
       5        8       11 ar       
       6       14       11 2        
       7       17       15 ar       
       8       10        9 ar       
       9       11       16 ar       
      10        2        4 1        
      11        2        1 1        
      12       15        5 ar       
      13        9        5 ar       
      14        9        6 ar       
      15       16        6 ar       
      16       16       12 1        
      17        4       12 1        
      18       12        3 2        
      19       18        1 1        
      20       19        1 1        
      21       20        1 1        
      22       21        2 1        
      23       22        2 1        
      24       23        5 1        
      25       24        6 1        
      26       25        7 1        
      27       26       13 1        
      28       27       15 1        
@<TRIPOS>SUBSTRUCTURE
 1 YZ9900 10 RESIDUE 4 A YZ9900 0 ROOT

