#        scan_R01_S0097_C0000_L00001_S0001_C0000_G0010_E0001.mol2
#        Mon Jun 19 14:15:33 2017
#        Descriptor:     14    24    21     1     3     3
#        Energy - RMSD - RMSD MassCentre:     -34.2732    999.9999    999.9999
#        Receptor:       1  Surface Point:    97  Conformer:     0
#        Ligand:         1  Surface Point:     1  Conformer:     0
#        BUDE Formal Charge: 0
#        ATOM Count: 27
#        Heavy ATOM Count: 17
@<TRIPOS>MOLECULE
pdb1gcz_ligA.pdb_scan_R01_S0097_C0000_L00001_S0001_C0000_G0010_E0001
27 28 1 0 0
SMALL
GASTEIGER
@<TRIPOS>ATOM
       1 C3         3.9427    1.3300   -0.2234 C.3       1 YZ9900      0.0513 
       2 C11        2.8882    0.3526    0.2111 C.3       1 YZ9900      0.2089 
       3 O1         1.7001    2.5867    2.5140 O.2       1 YZ9900     -0.2447 
       4 O2         2.4548    0.6747    1.5929 O.3       1 YZ9900     -0.4453 
       5 C6        -3.1872    2.8918    0.6247 C.ar      1 YZ9900      0.0063 
       6 C5        -0.8687    2.2802    1.4059 C.ar      1 YZ9900      0.0160 
       7 C4        -3.8818    0.0380    0.5640 C.ar      1 YZ9900      0.0796 
       8 O3        -1.6442   -0.4315    1.3132 O.2       1 YZ9900     -0.4208 
       9 C2        -2.2515    1.8939    0.9872 C.ar      1 YZ9900      0.0353 
      10 C1        -2.6083    0.5109    0.9518 C.ar      1 YZ9900      0.1519 
      11 C7        -0.4040   -0.1213    1.6153 C.ar      1 YZ9900      0.3521 
      12 C12        1.4755    1.5588    1.9508 C.2       1 YZ9900      0.3476 
      13 O4        -6.0322    0.7557   -0.1864 O.3       1 YZ9900     -0.2865 
      14 O5         0.3428   -0.9834    1.8559 O.2       1 YZ9900     -0.2442 
      15 C10       -4.4870    2.4670    0.2229 C.ar      1 YZ9900      0.0422 
      16 C9         0.0341    1.2802    1.6469 C.ar      1 YZ9900      0.1515 
      17 C8        -4.7896    1.0865    0.2048 C.ar      1 YZ9900      0.1988 
      18 H31        3.5431    2.3429   -0.1724 H         1 YZ9900      0.0000 
      19 H32        4.8076    1.2474    0.4349 H         1 YZ9900      0.0000 
      20 H33        4.2431    1.1089   -1.2475 H         1 YZ9900      0.0000 
      21 H112       3.2964   -0.6577    0.1846 H         1 YZ9900      0.0000 
      22 H113       2.0334    0.4170   -0.4621 H         1 YZ9900      0.0000 
      23 H6        -2.9255    3.9391    0.6517 H         1 YZ9900      0.0000 
      24 H5        -0.5905    3.3180    1.5149 H         1 YZ9900      0.0000 
      25 H4        -4.1448   -1.0092    0.5407 H         1 YZ9900      0.0000 
      26 HO4       -6.1231    0.9102   -1.1295 H         1 YZ9900      0.0000 
      27 H10       -5.2333    3.1927   -0.0649 H         1 YZ9900      0.0000 
@<TRIPOS>BOND
       1       13       17 1        
       2        7       17 ar       
       3        7       10 ar       
       4        8       10 ar       
       5        8       11 ar       
       6       14       11 2        
       7       17       15 ar       
       8       10        9 ar       
       9       11       16 ar       
      10        2        4 1        
      11        2        1 1        
      12       15        5 ar       
      13        9        5 ar       
      14        9        6 ar       
      15       16        6 ar       
      16       16       12 1        
      17        4       12 1        
      18       12        3 2        
      19       18        1 1        
      20       19        1 1        
      21       20        1 1        
      22       21        2 1        
      23       22        2 1        
      24       23        5 1        
      25       24        6 1        
      26       25        7 1        
      27       26       13 1        
      28       27       15 1        
@<TRIPOS>SUBSTRUCTURE
 1 YZ9900 10 RESIDUE 4 A YZ9900 0 ROOT

