#        scan_R01_S0097_C0000_L00001_S0001_C0002_G0010_E0001.mol2
#        Mon Jun 19 14:43:37 2017
#        Descriptor:     29    19     1     1     3     3
#        Energy - RMSD - RMSD MassCentre:     -37.1921    999.9999    999.9999
#        Receptor:       1  Surface Point:    97  Conformer:     0
#        Ligand:         1  Surface Point:     1  Conformer:     2
#        BUDE Formal Charge: 0
#        ATOM Count: 27
#        Heavy ATOM Count: 17
@<TRIPOS>MOLECULE
pdb1gcz_ligA.pdb_scan_R01_S0097_C0000_L00001_S0001_C0002_G0010_E0001
27 28 1 0 0
SMALL
GASTEIGER
@<TRIPOS>ATOM
       1 C3         6.0056    3.1133    2.0489 C.3       1 YZ9900      0.0513 
       2 C11        4.8040    3.8639    1.4821 C.3       1 YZ9900      0.2089 
       3 O1         2.4399    4.6242    0.6188 O.2       1 YZ9900     -0.2447 
       4 O2         3.6589    3.0075    1.4945 O.3       1 YZ9900     -0.4453 
       5 C6        -2.3140    2.7243    0.0885 C.ar      1 YZ9900      0.0063 
       6 C5         0.1124    3.1204    0.5608 C.ar      1 YZ9900      0.0160 
       7 C4        -2.1202    0.1181    1.0536 C.ar      1 YZ9900      0.0796 
       8 O3         0.2202    0.4436    1.5291 O.2       1 YZ9900     -0.4208 
       9 C2        -1.0861    2.2521    0.5641 C.ar      1 YZ9900      0.0353 
      10 C1        -0.9886    0.9425    1.0490 C.ar      1 YZ9900      0.1519 
      11 C7         1.3454    1.2647    1.5240 C.ar      1 YZ9900      0.3521 
      12 C12        2.4931    3.5022    1.0267 C.2       1 YZ9900      0.3476 
      13 O4        -4.4307   -0.2584    0.6036 O.3       1 YZ9900     -0.2865 
      14 O5         2.3940    0.8083    1.9488 O.2       1 YZ9900     -0.2442 
      15 C10       -3.4424    1.8957    0.0954 C.ar      1 YZ9900      0.0422 
      16 C9         1.2801    2.6543    1.0190 C.ar      1 YZ9900      0.1515 
      17 C8        -3.3516    0.5852    0.5790 C.ar      1 YZ9900      0.1988 
      18 H31        6.2113    2.2409    1.4319 H         1 YZ9900      0.0000 
      19 H32        6.8736    3.7692    2.0517 H         1 YZ9900      0.0000 
      20 H33        5.7870    2.7955    3.0661 H         1 YZ9900      0.0000 
      21 H112       5.0160    4.1701    0.4597 H         1 YZ9900      0.0000 
      22 H113       4.6049    4.7434    2.0907 H         1 YZ9900      0.0000 
      23 H6        -2.3968    3.7335   -0.2872 H         1 YZ9900      0.0000 
      24 H5         0.0268    4.1292    0.1847 H         1 YZ9900      0.0000 
      25 H4        -2.0401   -0.8915    1.4288 H         1 YZ9900      0.0000 
      26 HO4       -4.1832   -1.1290    0.9527 H         1 YZ9900      0.0000 
      27 H10       -4.3785    2.2845   -0.2773 H         1 YZ9900      0.0000 
@<TRIPOS>BOND
       1       13       17 1        
       2        7       17 ar       
       3        7       10 ar       
       4        8       10 ar       
       5        8       11 ar       
       6       14       11 2        
       7       17       15 ar       
       8       10        9 ar       
       9       11       16 ar       
      10        2        4 1        
      11        2        1 1        
      12       15        5 ar       
      13        9        5 ar       
      14        9        6 ar       
      15       16        6 ar       
      16       16       12 1        
      17        4       12 1        
      18       12        3 2        
      19       18        1 1        
      20       19        1 1        
      21       20        1 1        
      22       21        2 1        
      23       22        2 1        
      24       23        5 1        
      25       24        6 1        
      26       25        7 1        
      27       26       13 1        
      28       27       15 1        
@<TRIPOS>SUBSTRUCTURE
 1 YZ9900 10 RESIDUE 4 A YZ9900 0 ROOT

