#        scan_R01_S0097_C0000_L00001_S0001_C0002_G0010_E0001.mol2
#        Mon Jun 19 14:15:33 2017
#        Descriptor:     19    16    17     2     2     4
#        Energy - RMSD - RMSD MassCentre:     -32.0988    999.9999    999.9999
#        Receptor:       1  Surface Point:    97  Conformer:     0
#        Ligand:         1  Surface Point:     1  Conformer:     2
#        BUDE Formal Charge: 0
#        ATOM Count: 27
#        Heavy ATOM Count: 17
@<TRIPOS>MOLECULE
pdb1gcz_ligA.pdb_scan_R01_S0097_C0000_L00001_S0001_C0002_G0010_E0001
27 28 1 0 0
SMALL
GASTEIGER
@<TRIPOS>ATOM
       1 C3        -7.1039    1.1762    0.3278 C.3       1 YZ9900      0.0513 
       2 C11       -6.4251    0.8484    1.6546 C.3       1 YZ9900      0.2089 
       3 O1        -4.7421    0.2872    3.5948 O.2       1 YZ9900     -0.2447 
       4 O2        -5.0158    0.7201    1.4491 O.3       1 YZ9900     -0.4453 
       5 C6         0.3057   -0.4392    4.2901 C.ar      1 YZ9900      0.0063 
       6 C5        -1.9924   -0.0012    3.3988 C.ar      1 YZ9900      0.0160 
       7 C4         1.4017   -0.0951    1.7520 C.ar      1 YZ9900      0.0796 
       8 O3        -0.7874    0.3340    0.8395 O.2       1 YZ9900     -0.4208 
       9 C2        -0.5310   -0.1386    3.2100 C.ar      1 YZ9900      0.0353 
      10 C1         0.0197    0.0342    1.9346 C.ar      1 YZ9900      0.1519 
      11 C7        -2.1623    0.4624    1.0223 C.ar      1 YZ9900      0.3521 
      12 C12       -4.2439    0.4293    2.5179 C.2       1 YZ9900      0.3476 
      13 O4         3.5898   -0.5122    2.6013 O.3       1 YZ9900     -0.2865 
      14 O5        -2.8510    0.7252    0.0502 O.2       1 YZ9900     -0.2442 
      15 C10        1.6871   -0.5674    4.1019 C.ar      1 YZ9900      0.0422 
      16 C9        -2.7799    0.2865    2.3558 C.ar      1 YZ9900      0.1515 
      17 C8         2.2439   -0.3956    2.8291 C.ar      1 YZ9900      0.1988 
      18 H31       -6.9229    0.3701   -0.3803 H         1 YZ9900      0.0000 
      19 H32       -8.1745    1.2869    0.4866 H         1 YZ9900      0.0000 
      20 H33       -6.6973    2.1048   -0.0671 H         1 YZ9900      0.0000 
      21 H112      -6.8209   -0.0875    2.0437 H         1 YZ9900      0.0000 
      22 H113      -6.6158    1.6477    2.3675 H         1 YZ9900      0.0000 
      23 H6        -0.1121   -0.5740    5.2769 H         1 YZ9900      0.0000 
      24 H5        -2.4075   -0.1365    4.3867 H         1 YZ9900      0.0000 
      25 H4         1.8220    0.0393    0.7662 H         1 YZ9900      0.0000 
      26 HO4        3.7960   -0.3796    1.6628 H         1 YZ9900      0.0000 
      27 H10        2.3109   -0.7998    4.9523 H         1 YZ9900      0.0000 
@<TRIPOS>BOND
       1       13       17 1        
       2        7       17 ar       
       3        7       10 ar       
       4        8       10 ar       
       5        8       11 ar       
       6       14       11 2        
       7       17       15 ar       
       8       10        9 ar       
       9       11       16 ar       
      10        2        4 1        
      11        2        1 1        
      12       15        5 ar       
      13        9        5 ar       
      14        9        6 ar       
      15       16        6 ar       
      16       16       12 1        
      17        4       12 1        
      18       12        3 2        
      19       18        1 1        
      20       19        1 1        
      21       20        1 1        
      22       21        2 1        
      23       22        2 1        
      24       23        5 1        
      25       24        6 1        
      26       25        7 1        
      27       26       13 1        
      28       27       15 1        
@<TRIPOS>SUBSTRUCTURE
 1 YZ9900 10 RESIDUE 4 A YZ9900 0 ROOT

