#        scan_R01_S0097_C0000_L00001_S0001_C0003_G0010_E0001.mol2
#        Mon Jun 19 14:43:38 2017
#        Descriptor:     33     3     1     1     3     4
#        Energy - RMSD - RMSD MassCentre:     -39.9430    999.9999    999.9999
#        Receptor:       1  Surface Point:    97  Conformer:     0
#        Ligand:         1  Surface Point:     1  Conformer:     3
#        BUDE Formal Charge: 0
#        ATOM Count: 27
#        Heavy ATOM Count: 17
@<TRIPOS>MOLECULE
pdb1gcz_ligA.pdb_scan_R01_S0097_C0000_L00001_S0001_C0003_G0010_E0001
27 28 1 0 0
SMALL
GASTEIGER
@<TRIPOS>ATOM
       1 C3        -7.9204    0.1054    1.4269 C.3       1 YZ9900      0.0513 
       2 C11       -7.2652    0.9109    0.3086 C.3       1 YZ9900      0.2089 
       3 O1        -5.9383    1.7406    2.4212 O.2       1 YZ9900     -0.2447 
       4 O2        -5.8430    0.8129    0.4220 O.3       1 YZ9900     -0.4453 
       5 C6        -1.0881    2.0097    4.1222 C.ar      1 YZ9900      0.0063 
       6 C5        -3.1986    1.6382    2.8278 C.ar      1 YZ9900      0.0160 
       7 C4         0.4222    0.9034    2.0590 C.ar      1 YZ9900      0.0796 
       8 O3        -1.5775    0.5219    0.7686 O.2       1 YZ9900     -0.4208 
       9 C2        -1.7280    1.5472    2.9674 C.ar      1 YZ9900      0.0353 
      10 C1        -0.9692    0.9912    1.9307 C.ar      1 YZ9900      0.1519 
      11 C7        -2.9619    0.6099    0.6420 C.ar      1 YZ9900      0.3521 
      12 C12       -5.2650    1.2709    1.5528 C.2       1 YZ9900      0.3476 
      13 O4         2.4315    1.2573    3.2920 O.3       1 YZ9900     -0.2865 
      14 O5        -3.4745    0.1932   -0.3837 O.2       1 YZ9900     -0.2442 
      15 C10        0.3036    1.9194    4.2453 C.ar      1 YZ9900      0.0422 
      16 C9        -3.7963    1.1914    1.7171 C.ar      1 YZ9900      0.1515 
      17 C8         1.0681    1.3646    3.2122 C.ar      1 YZ9900      0.1988 
      18 H31       -7.6153    0.5089    2.3902 H         1 YZ9900      0.0000 
      19 H32       -9.0025    0.1690    1.3326 H         1 YZ9900      0.0000 
      20 H33       -7.6099   -0.9347    1.3537 H         1 YZ9900      0.0000 
      21 H112      -7.5637    1.9539    0.3891 H         1 YZ9900      0.0000 
      22 H113      -7.5794    0.5163   -0.6554 H         1 YZ9900      0.0000 
      23 H6        -1.6670    2.4398    4.9261 H         1 YZ9900      0.0000 
      24 H5        -3.7751    2.0688    3.6333 H         1 YZ9900      0.0000 
      25 H4         1.0034    0.4737    1.2565 H         1 YZ9900      0.0000 
      26 HO4        2.7938    0.8348    2.4975 H         1 YZ9900      0.0000 
      27 H10        0.7731    2.2838    5.1471 H         1 YZ9900      0.0000 
@<TRIPOS>BOND
       1       13       17 1        
       2        7       17 ar       
       3        7       10 ar       
       4        8       10 ar       
       5        8       11 ar       
       6       14       11 2        
       7       17       15 ar       
       8       10        9 ar       
       9       11       16 ar       
      10        2        4 1        
      11        2        1 1        
      12       15        5 ar       
      13        9        5 ar       
      14        9        6 ar       
      15       16        6 ar       
      16       16       12 1        
      17        4       12 1        
      18       12        3 2        
      19       18        1 1        
      20       19        1 1        
      21       20        1 1        
      22       21        2 1        
      23       22        2 1        
      24       23        5 1        
      25       24        6 1        
      26       25        7 1        
      27       26       13 1        
      28       27       15 1        
@<TRIPOS>SUBSTRUCTURE
 1 YZ9900 10 RESIDUE 4 A YZ9900 0 ROOT

