#        scan_R01_S0098_C0000_L00001_S0001_C0000_G0010_E0001.mol2
#        Mon Jun 19 14:43:38 2017
#        Descriptor:      8     3     3     3     3     3
#        Energy - RMSD - RMSD MassCentre:     -49.6126    999.9999    999.9999
#        Receptor:       1  Surface Point:    98  Conformer:     0
#        Ligand:         1  Surface Point:     1  Conformer:     0
#        BUDE Formal Charge: 0
#        ATOM Count: 27
#        Heavy ATOM Count: 17
@<TRIPOS>MOLECULE
pdb1gcz_ligA.pdb_scan_R01_S0098_C0000_L00001_S0001_C0000_G0010_E0001
27 28 1 0 0
SMALL
GASTEIGER
@<TRIPOS>ATOM
       1 C3         5.8381    1.8169   -0.4002 C.3       1 YZ9900      0.0513 
       2 C11        4.4227    2.1808   -0.7466 C.3       1 YZ9900      0.2089 
       3 O1         3.4413   -1.0736   -0.3568 O.2       1 YZ9900     -0.2447 
       4 O2         3.7110    0.9786   -1.2456 O.3       1 YZ9900     -0.4453 
       5 C6        -0.1086   -0.2085    3.4113 C.ar      1 YZ9900      0.0063 
       6 C5         1.4445   -0.2013    1.4244 C.ar      1 YZ9900      0.0160 
       7 C4        -1.7251    1.8717    2.1111 C.ar      1 YZ9900      0.0796 
       8 O3        -0.1810    1.7943    0.2676 O.2       1 YZ9900     -0.4208 
       9 C2         0.2321    0.3064    2.1378 C.ar      1 YZ9900      0.0353 
      10 C1        -0.5670    1.3177    1.5214 C.ar      1 YZ9900      0.1519 
      11 C7         0.9171    1.4157   -0.3459 C.ar      1 YZ9900      0.3521 
      12 C12        3.0573    0.0489   -0.4858 C.2       1 YZ9900      0.3476 
      13 O4        -3.1029    1.7738    4.0591 O.3       1 YZ9900     -0.2865 
      14 O5         1.1812    1.9078   -1.3691 O.2       1 YZ9900     -0.2442 
      15 C10       -1.2678    0.3191    4.0510 C.ar      1 YZ9900      0.0422 
      16 C9         1.7951    0.3971    0.2446 C.ar      1 YZ9900      0.1515 
      17 C8        -2.0241    1.3191    3.3986 C.ar      1 YZ9900      0.1988 
      18 H31        5.8373    1.0302    0.3544 H         1 YZ9900      0.0000 
      19 H32        6.3509    1.4618   -1.2942 H         1 YZ9900      0.0000 
      20 H33        6.3537    2.6944   -0.0100 H         1 YZ9900      0.0000 
      21 H112       4.4240    2.9492   -1.5198 H         1 YZ9900      0.0000 
      22 H113       3.9171    2.5598    0.1416 H         1 YZ9900      0.0000 
      23 H6         0.4890   -0.9748    3.8821 H         1 YZ9900      0.0000 
      24 H5         2.0264   -1.0164    1.8284 H         1 YZ9900      0.0000 
      25 H4        -2.3250    2.6353    1.6386 H         1 YZ9900      0.0000 
      26 HO4       -2.8204    2.3062    4.8062 H         1 YZ9900      0.0000 
      27 H10       -1.5653   -0.0416    5.0246 H         1 YZ9900      0.0000 
@<TRIPOS>BOND
       1       13       17 1        
       2        7       17 ar       
       3        7       10 ar       
       4        8       10 ar       
       5        8       11 ar       
       6       14       11 2        
       7       17       15 ar       
       8       10        9 ar       
       9       11       16 ar       
      10        2        4 1        
      11        2        1 1        
      12       15        5 ar       
      13        9        5 ar       
      14        9        6 ar       
      15       16        6 ar       
      16       16       12 1        
      17        4       12 1        
      18       12        3 2        
      19       18        1 1        
      20       19        1 1        
      21       20        1 1        
      22       21        2 1        
      23       22        2 1        
      24       23        5 1        
      25       24        6 1        
      26       25        7 1        
      27       26       13 1        
      28       27       15 1        
@<TRIPOS>SUBSTRUCTURE
 1 YZ9900 10 RESIDUE 4 A YZ9900 0 ROOT

