#        scan_R01_S0098_C0000_L00001_S0001_C0002_G0010_E0001.mol2
#        Mon Jun 19 14:43:39 2017
#        Descriptor:     31     3    21     3     2     3
#        Energy - RMSD - RMSD MassCentre:     -49.1748    999.9999    999.9999
#        Receptor:       1  Surface Point:    98  Conformer:     0
#        Ligand:         1  Surface Point:     1  Conformer:     2
#        BUDE Formal Charge: 0
#        ATOM Count: 27
#        Heavy ATOM Count: 17
@<TRIPOS>MOLECULE
pdb1gcz_ligA.pdb_scan_R01_S0098_C0000_L00001_S0001_C0002_G0010_E0001
27 28 1 0 0
SMALL
GASTEIGER
@<TRIPOS>ATOM
       1 C3         7.0917    2.6692   -2.2266 C.3       1 YZ9900      0.0513 
       2 C11        6.9145    1.6866   -1.0727 C.3       1 YZ9900      0.2089 
       3 O1         6.0068    0.0899    0.8085 O.2       1 YZ9900     -0.2447 
       4 O2         5.5198    1.4884   -0.8265 O.3       1 YZ9900     -0.4453 
       5 C6         1.5080   -1.5106    2.7294 C.ar      1 YZ9900      0.0063 
       6 C5         3.3569   -0.4243    1.4375 C.ar      1 YZ9900      0.0160 
       7 C4        -0.4013   -0.1848    1.1938 C.ar      1 YZ9900      0.0796 
       8 O3         1.3379    0.8896   -0.0830 O.2       1 YZ9900     -0.4208 
       9 C2         1.9191   -0.6449    1.7103 C.ar      1 YZ9900      0.0353 
      10 C1         0.9597    0.0214    0.9387 C.ar      1 YZ9900      0.1519 
      11 C7         2.6924    1.0939   -0.3359 C.ar      1 YZ9900      0.3521 
      12 C12        5.1656    0.6447    0.1662 C.2       1 YZ9900      0.3476 
      13 O4        -2.1614   -1.2194    2.4244 O.3       1 YZ9900     -0.2865 
      14 O5         3.0020    1.8581   -1.2351 O.2       1 YZ9900     -0.2442 
      15 C10        0.1456   -1.7130    2.9803 C.ar      1 YZ9900      0.0422 
      16 C9         3.7346    0.4070    0.4592 C.ar      1 YZ9900      0.1515 
      17 C8        -0.8187   -1.0498    2.2122 C.ar      1 YZ9900      0.1988 
      18 H31        6.6415    3.6237   -1.9616 H         1 YZ9900      0.0000 
      19 H32        8.1526    2.8097   -2.4226 H         1 YZ9900      0.0000 
      20 H33        6.6071    2.2736   -3.1167 H         1 YZ9900      0.0000 
      21 H112       7.3865    2.0875   -0.1782 H         1 YZ9900      0.0000 
      22 H113       7.3751    0.7355   -1.3313 H         1 YZ9900      0.0000 
      23 H6         2.2425   -2.0280    3.3288 H         1 YZ9900      0.0000 
      24 H5         4.0892   -0.9430    2.0384 H         1 YZ9900      0.0000 
      25 H4        -1.1378    0.3315    0.5958 H         1 YZ9900      0.0000 
      26 HO4       -2.6812   -0.6720    1.8151 H         1 YZ9900      0.0000 
      27 H10       -0.1453   -2.3865    3.7729 H         1 YZ9900      0.0000 
@<TRIPOS>BOND
       1       13       17 1        
       2        7       17 ar       
       3        7       10 ar       
       4        8       10 ar       
       5        8       11 ar       
       6       14       11 2        
       7       17       15 ar       
       8       10        9 ar       
       9       11       16 ar       
      10        2        4 1        
      11        2        1 1        
      12       15        5 ar       
      13        9        5 ar       
      14        9        6 ar       
      15       16        6 ar       
      16       16       12 1        
      17        4       12 1        
      18       12        3 2        
      19       18        1 1        
      20       19        1 1        
      21       20        1 1        
      22       21        2 1        
      23       22        2 1        
      24       23        5 1        
      25       24        6 1        
      26       25        7 1        
      27       26       13 1        
      28       27       15 1        
@<TRIPOS>SUBSTRUCTURE
 1 YZ9900 10 RESIDUE 4 A YZ9900 0 ROOT

