#        1GCZ_R01_S0001_C0000_L00005_S0001_C0018_G0010_E0001.mol2
#        Tue Jun  6 14:06:10 2017
#        Descriptor:     16    21    22    11     6    13
#        Energy - RMSD - RMSD MassCentre:     -65.3366    999.9999    999.9999
#        Receptor:       1  Surface Point:     1  Conformer:     0
#        Ligand:         5  Surface Point:     1  Conformer:    18
#        BUDE Formal Charge: 0
#        ATOM Count: 55
#        Heavy ATOM Count: 30
@<TRIPOS>MOLECULE
ZINC61464195_1GCZ_R01_S0001_C0000_L00005_S0001_C0018_G0010_E0001
 55 56 0 0 0
SMALL
USER_CHARGES
@<TRIPOS>ATOM
       1 C1         0.0472    1.3120    1.4799 C.3       1 <0>        -0.1456 
       2 C2        -0.9373    0.4574    2.2730 C.3       1 <0>        -0.0579 
       3 C3        -1.0939   -0.9008    1.5955 C.3       1 <0>        -0.1456 
       4 C4        -0.4155    0.2617    3.6764 C.ar      1 <0>        -0.0771 
       5 C5        -1.1874    0.7337    4.7446 C.ar      1 <0>        -0.0943 
       6 C6        -0.7831    0.4811    6.0609 C.ar      1 <0>        -0.0923 
       7 C7         0.3852   -0.2462    6.3182 C.ar      1 <0>        -0.1041 
       8 C8         1.1908   -0.6767    5.2573 C.ar      1 <0>        -0.1315 
       9 C9         0.7973   -0.3907    3.9447 C.ar      1 <0>        -0.0969 
      10 S1         0.8419   -0.6122    7.9887 S.3       1 <0>        -0.0341 
      11 C10        0.1040   -2.2004    8.4842 C.3       1 <0>        -0.1267 
      12 C11        0.6213   -3.2971    7.5843 C.2       1 <0>         0.4864 
      13 O1        -0.0570   -3.7072    6.6901 O.2       1 <0>        -0.4815 
      14 O2         1.8509   -3.8148    7.7903 O.3       1 <0>        -0.3231 
      15 C12        2.2978   -4.8517    6.9127 C.3       1 <0>         0.0526 
      16 C13        3.6871   -5.2859    7.3144 C.2       1 <0>         0.5250 
      17 O3         3.9004   -6.4583    7.6195 O.2       1 <0>        -0.5082 
      18 N1         4.6801   -4.4017    7.3387 N.am      1 <0>        -0.5981 
      19 C14        6.0320   -4.8261    7.7300 C.3       1 <0>         0.0731 
      20 C15        4.4252   -3.0006    6.9740 C.3       1 <0>         0.1010 
      21 C16        5.5475   -2.4972    6.0982 C.2       1 <0>         0.4997 
      22 O4         6.1272   -1.4505    6.3830 O.2       1 <0>        -0.5061 
      23 N2         5.9086   -3.1860    5.0192 N.am      1 <0>        -0.6702 
      24 C17        6.9604   -2.7143    4.1985 C.ar      1 <0>         0.1553 
      25 C18        7.3308   -1.3650    4.2418 C.ar      1 <0>        -0.1106 
      26 C19        8.3767   -0.9042    3.4332 C.ar      1 <0>        -0.0959 
      27 C20        9.0457   -1.7841    2.5780 C.ar      1 <0>        -0.1208 
      28 C21        8.6671   -3.1308    2.5239 C.ar      1 <0>        -0.0919 
      29 C22        7.6267   -3.5947    3.3377 C.ar      1 <0>        -0.0639 
      30 Cl1        7.1503   -5.2668    3.2706 Cl        1 <0>        -0.0632 
      31 H1         1.0086    0.8052    1.4308 H         1 <0>         0.0596 
      32 H2        -0.3353    1.4642    0.4727 H         1 <0>         0.0563 
      33 H3         0.1688    2.2749    1.9717 H         1 <0>         0.0575 
      34 H4        -1.9027    0.9574    2.3123 H         1 <0>         0.0784 
      35 H5        -1.8055   -1.5046    2.1549 H         1 <0>         0.0596 
      36 H6        -0.1305   -1.4057    1.5694 H         1 <0>         0.0574 
      37 H7        -1.4572   -0.7590    0.5797 H         1 <0>         0.0563 
      38 H8        -2.1033    1.2789    4.5710 H         1 <0>         0.1285 
      39 H9        -1.3466    0.8201    6.9175 H         1 <0>         0.1293 
      40 H10        2.0990   -1.2205    5.4717 H         1 <0>         0.1227 
      41 H11        1.4484   -0.6989    3.1401 H         1 <0>         0.1262 
      42 H12        0.3737   -2.4205    9.5150 H         1 <0>         0.1329 
      43 H13       -0.9788   -2.1409    8.3967 H         1 <0>         0.1329 
      44 H14        2.3162   -4.4794    5.8904 H         1 <0>         0.1063 
      45 H15        1.6201   -5.7003    6.9782 H         1 <0>         0.1054 
      46 H16        6.3871   -5.5870    7.0381 H         1 <0>         0.0686 
      47 H17        6.7022   -3.9695    7.7033 H         1 <0>         0.0794 
      48 H18        6.0055   -5.2355    8.7377 H         1 <0>         0.0778 
      49 H19        3.4837   -2.9330    6.4329 H         1 <0>         0.1198 
      50 H20        4.3697   -2.3960    7.8769 H         1 <0>         0.1233 
      51 H21        5.4320   -4.0456    4.7863 H         1 <0>         0.4142 
      52 H22        6.8175   -0.6800    4.9004 H         1 <0>         0.1473 
      53 H23        8.6661    0.1357    3.4737 H         1 <0>         0.1337 
      54 H24        9.8551   -1.4289    1.9573 H         1 <0>         0.1349 
      55 H25        9.1787   -3.8107    1.8588 H         1 <0>         0.1385 
@<TRIPOS>BOND
       1        1        2 1        
       2        1       31 1        
       3        1       32 1        
       4        1       33 1        
       5        2        3 1        
       6        2        4 1        
       7        2       34 1        
       8        3       35 1        
       9        3       36 1        
      10        3       37 1        
      11        4        9 ar       
      12        4        5 ar       
      13        5        6 ar       
      14        5       38 1        
      15        6        7 ar       
      16        6       39 1        
      17        7        8 ar       
      18        7       10 1        
      19        8        9 ar       
      20        8       40 1        
      21        9       41 1        
      22       10       11 1        
      23       11       12 1        
      24       11       42 1        
      25       11       43 1        
      26       12       13 2        
      27       12       14 1        
      28       14       15 1        
      29       15       16 1        
      30       15       44 1        
      31       15       45 1        
      32       16       17 2        
      33       16       18 am       
      34       18       19 1        
      35       18       20 1        
      36       19       46 1        
      37       19       47 1        
      38       19       48 1        
      39       20       21 1        
      40       20       49 1        
      41       20       50 1        
      42       21       22 2        
      43       21       23 am       
      44       23       24 1        
      45       23       51 1        
      46       24       29 ar       
      47       24       25 ar       
      48       25       26 ar       
      49       25       52 1        
      50       26       27 ar       
      51       26       53 1        
      52       27       28 ar       
      53       27       54 1        
      54       28       29 ar       
      55       28       55 1        
      56       29       30 1        

