#        scan_R01_S0098_C0000_L00001_S0001_C0002_G0010_E0001.mol2
#        Mon Jun 19 14:15:35 2017
#        Descriptor:     28     3    21     1     2     4
#        Energy - RMSD - RMSD MassCentre:     -42.6877    999.9999    999.9999
#        Receptor:       1  Surface Point:    98  Conformer:     0
#        Ligand:         1  Surface Point:     1  Conformer:     2
#        BUDE Formal Charge: 0
#        ATOM Count: 27
#        Heavy ATOM Count: 17
@<TRIPOS>MOLECULE
pdb1gcz_ligA.pdb_scan_R01_S0098_C0000_L00001_S0001_C0002_G0010_E0001
27 28 1 0 0
SMALL
GASTEIGER
@<TRIPOS>ATOM
       1 C3         4.9816    2.4243   -1.6038 C.3       1 YZ9900      0.0513 
       2 C11        4.7182    1.1191   -0.8586 C.3       1 YZ9900      0.2089 
       3 O1         3.7079   -0.8764    0.5232 O.2       1 YZ9900     -0.2447 
       4 O2         3.3881    1.1310   -0.3336 O.3       1 YZ9900     -0.4453 
       5 C6        -0.6776   -2.1497    2.8975 C.ar      1 YZ9900      0.0063 
       6 C5         1.1670   -1.0415    1.6180 C.ar      1 YZ9900      0.0160 
       7 C4        -2.3412    0.0464    2.4842 C.ar      1 YZ9900      0.0796 
       8 O3        -0.6009    1.1605    1.2435 O.2       1 YZ9900     -0.4208 
       9 C2        -0.2060   -1.0515    2.1706 C.ar      1 YZ9900      0.0353 
      10 C1        -1.0418    0.0521    1.9630 C.ar      1 YZ9900      0.1519 
      11 C7         0.6921    1.1651    0.7254 C.ar      1 YZ9900      0.3521 
      12 C12        2.9721    0.0513    0.3619 C.2       1 YZ9900      0.3476 
      13 O4        -4.0972   -1.0093    3.7027 O.3       1 YZ9900     -0.2865 
      14 O5         1.0584    2.1455    0.0984 O.2       1 YZ9900     -0.2442 
      15 C10       -1.9778   -2.1502    3.4165 C.ar      1 YZ9900      0.0422 
      16 C9         1.6039    0.0165    0.9249 C.ar      1 YZ9900      0.1515 
      17 C8        -2.8186   -1.0498    3.2123 C.ar      1 YZ9900      0.1988 
      18 H31        4.8820    3.2609   -0.9151 H         1 YZ9900      0.0000 
      19 H32        5.9890    2.4097   -2.0144 H         1 YZ9900      0.0000 
      20 H33        4.2613    2.5315   -2.4121 H         1 YZ9900      0.0000 
      21 H112       5.4290    1.0175   -0.0411 H         1 YZ9900      0.0000 
      22 H113       4.8297    0.2809   -1.5431 H         1 YZ9900      0.0000 
      23 H6        -0.0384   -3.0046    3.0617 H         1 YZ9900      0.0000 
      24 H5         1.8040   -1.8978    1.7837 H         1 YZ9900      0.0000 
      25 H4        -2.9824    0.9001    2.3213 H         1 YZ9900      0.0000 
      26 HO4       -4.5272   -0.1681    3.4827 H         1 YZ9900      0.0000 
      27 H10       -2.3176   -3.0105    3.9740 H         1 YZ9900      0.0000 
@<TRIPOS>BOND
       1       13       17 1        
       2        7       17 ar       
       3        7       10 ar       
       4        8       10 ar       
       5        8       11 ar       
       6       14       11 2        
       7       17       15 ar       
       8       10        9 ar       
       9       11       16 ar       
      10        2        4 1        
      11        2        1 1        
      12       15        5 ar       
      13        9        5 ar       
      14        9        6 ar       
      15       16        6 ar       
      16       16       12 1        
      17        4       12 1        
      18       12        3 2        
      19       18        1 1        
      20       19        1 1        
      21       20        1 1        
      22       21        2 1        
      23       22        2 1        
      24       23        5 1        
      25       24        6 1        
      26       25        7 1        
      27       26       13 1        
      28       27       15 1        
@<TRIPOS>SUBSTRUCTURE
 1 YZ9900 10 RESIDUE 4 A YZ9900 0 ROOT

