#        scan_R01_S0098_C0000_L00001_S0001_C0003_G0010_E0001.mol2
#        Mon Jun 19 14:43:40 2017
#        Descriptor:     12    15     4     2     2     3
#        Energy - RMSD - RMSD MassCentre:     -49.6865    999.9999    999.9999
#        Receptor:       1  Surface Point:    98  Conformer:     0
#        Ligand:         1  Surface Point:     1  Conformer:     3
#        BUDE Formal Charge: 0
#        ATOM Count: 27
#        Heavy ATOM Count: 17
@<TRIPOS>MOLECULE
pdb1gcz_ligA.pdb_scan_R01_S0098_C0000_L00001_S0001_C0003_G0010_E0001
27 28 1 0 0
SMALL
GASTEIGER
@<TRIPOS>ATOM
       1 C3         6.2642    2.9427   -0.0588 C.3       1 YZ9900      0.0513 
       2 C11        5.5432    2.4581   -1.3134 C.3       1 YZ9900      0.2089 
       3 O1         4.9443    0.5716    0.4171 O.2       1 YZ9900     -0.2447 
       4 O2         4.1977    2.1047   -0.9823 O.3       1 YZ9900     -0.4453 
       5 C6         0.7852   -1.6532    2.4769 C.ar      1 YZ9900      0.0063 
       6 C5         2.4137   -0.2552    1.1880 C.ar      1 YZ9900      0.0160 
       7 C4        -1.3580   -0.3345    1.2815 C.ar      1 YZ9900      0.0796 
       8 O3         0.1639    1.0398    0.0150 O.2       1 YZ9900     -0.4208 
       9 C2         1.0296   -0.6380    1.5460 C.ar      1 YZ9900      0.0353 
      10 C1        -0.0473    0.0247    0.9454 C.ar      1 YZ9900      0.1519 
      11 C7         1.4685    1.3964   -0.3187 C.ar      1 YZ9900      0.3521 
      12 C12        4.0056    1.1196   -0.0794 C.2       1 YZ9900      0.3476 
      13 O4        -2.9082   -1.6660    2.5091 O.3       1 YZ9900     -0.2865 
      14 O5         1.6314    2.2877   -1.1356 O.2       1 YZ9900     -0.2442 
      15 C10       -0.5275   -2.0085    2.8094 C.ar      1 YZ9900      0.0422 
      16 C9         2.6315    0.7181    0.2958 C.ar      1 YZ9900      0.1515 
      17 C8        -1.6087   -1.3497    2.2123 C.ar      1 YZ9900      0.1988 
      18 H31        6.2813    2.1443    0.6801 H         1 YZ9900      0.0000 
      19 H32        7.2839    3.2243   -0.3132 H         1 YZ9900      0.0000 
      20 H33        5.7406    3.8046    0.3495 H         1 YZ9900      0.0000 
      21 H112       6.0578    1.5876   -1.7148 H         1 YZ9900      0.0000 
      22 H113       5.5364    3.2514   -2.0578 H         1 YZ9900      0.0000 
      23 H6         1.6111   -2.1688    2.9443 H         1 YZ9900      0.0000 
      24 H5         3.2377   -0.7725    1.6570 H         1 YZ9900      0.0000 
      25 H4        -2.1857    0.1796    0.8154 H         1 YZ9900      0.0000 
      26 HO4       -3.5243   -1.0998    2.0183 H         1 YZ9900      0.0000 
      27 H10       -0.6890   -2.7956    3.5310 H         1 YZ9900      0.0000 
@<TRIPOS>BOND
       1       13       17 1        
       2        7       17 ar       
       3        7       10 ar       
       4        8       10 ar       
       5        8       11 ar       
       6       14       11 2        
       7       17       15 ar       
       8       10        9 ar       
       9       11       16 ar       
      10        2        4 1        
      11        2        1 1        
      12       15        5 ar       
      13        9        5 ar       
      14        9        6 ar       
      15       16        6 ar       
      16       16       12 1        
      17        4       12 1        
      18       12        3 2        
      19       18        1 1        
      20       19        1 1        
      21       20        1 1        
      22       21        2 1        
      23       22        2 1        
      24       23        5 1        
      25       24        6 1        
      26       25        7 1        
      27       26       13 1        
      28       27       15 1        
@<TRIPOS>SUBSTRUCTURE
 1 YZ9900 10 RESIDUE 4 A YZ9900 0 ROOT

