#        scan_R01_S0099_C0000_L00001_S0001_C0000_G0010_E0001.mol2
#        Mon Jun 19 14:43:40 2017
#        Descriptor:     15    14     3     3     3     5
#        Energy - RMSD - RMSD MassCentre:     -41.2090    999.9999    999.9999
#        Receptor:       1  Surface Point:    99  Conformer:     0
#        Ligand:         1  Surface Point:     1  Conformer:     0
#        BUDE Formal Charge: 0
#        ATOM Count: 27
#        Heavy ATOM Count: 17
@<TRIPOS>MOLECULE
pdb1gcz_ligA.pdb_scan_R01_S0099_C0000_L00001_S0001_C0000_G0010_E0001
27 28 1 0 0
SMALL
GASTEIGER
@<TRIPOS>ATOM
       1 C3        -0.9708    2.9967    7.2620 C.3       1 YZ9900      0.0513 
       2 C11       -0.9041    3.1984    5.7751 C.3       1 YZ9900      0.2089 
       3 O1         2.4458    2.5030    5.7841 O.2       1 YZ9900     -0.2447 
       4 O2         0.4859    3.5386    5.3841 O.3       1 YZ9900     -0.4453 
       5 C6         2.2427   -1.5915    2.5065 C.ar      1 YZ9900      0.0063 
       6 C5         1.9924    0.5585    3.8007 C.ar      1 YZ9900      0.0160 
       7 C4         0.8050   -0.3644    0.2576 C.ar      1 YZ9900      0.0796 
       8 O3         0.6252    1.6373    1.5803 O.2       1 YZ9900     -0.4208 
       9 C2         1.7711   -0.2586    2.5678 C.ar      1 YZ9900      0.0353 
      10 C1         1.0743    0.3210    1.4632 C.ar      1 YZ9900      0.1519 
      11 C7         0.7448    2.3498    2.6774 C.ar      1 YZ9900      0.3521 
      12 C12        1.4861    2.6539    5.0911 C.2       1 YZ9900      0.3476 
      13 O4         1.0981   -2.4609   -0.8475 O.3       1 YZ9900     -0.2865 
      14 O5         0.2934    3.4244    2.6955 O.2       1 YZ9900     -0.2442 
      15 C10        1.9945   -2.3281    1.3118 C.ar      1 YZ9900      0.0422 
      16 C9         1.4296    1.8047    3.8569 C.ar      1 YZ9900      0.1515 
      17 C8         1.3002   -1.7087    0.2480 C.ar      1 YZ9900      0.1988 
      18 H31       -0.2845    2.2012    7.5524 H         1 YZ9900      0.0000 
      19 H32       -0.6896    3.9211    7.7666 H         1 YZ9900      0.0000 
      20 H33       -1.9866    2.7222    7.5461 H         1 YZ9900      0.0000 
      21 H112      -1.5714    4.0112    5.4885 H         1 YZ9900      0.0000 
      22 H113      -1.2097    2.2821    5.2700 H         1 YZ9900      0.0000 
      23 H6         2.7726   -2.0352    3.3362 H         1 YZ9900      0.0000 
      24 H5         2.5792    0.1763    4.6227 H         1 YZ9900      0.0000 
      25 H4         0.2784    0.0806   -0.5737 H         1 YZ9900      0.0000 
      26 HO4        0.4442   -3.1371   -0.6558 H         1 YZ9900      0.0000 
      27 H10        2.3336   -3.3494    1.2204 H         1 YZ9900      0.0000 
@<TRIPOS>BOND
       1       13       17 1        
       2        7       17 ar       
       3        7       10 ar       
       4        8       10 ar       
       5        8       11 ar       
       6       14       11 2        
       7       17       15 ar       
       8       10        9 ar       
       9       11       16 ar       
      10        2        4 1        
      11        2        1 1        
      12       15        5 ar       
      13        9        5 ar       
      14        9        6 ar       
      15       16        6 ar       
      16       16       12 1        
      17        4       12 1        
      18       12        3 2        
      19       18        1 1        
      20       19        1 1        
      21       20        1 1        
      22       21        2 1        
      23       22        2 1        
      24       23        5 1        
      25       24        6 1        
      26       25        7 1        
      27       26       13 1        
      28       27       15 1        
@<TRIPOS>SUBSTRUCTURE
 1 YZ9900 10 RESIDUE 4 A YZ9900 0 ROOT

