#        scan_R01_S0099_C0000_L00001_S0001_C0000_G0010_E0001.mol2
#        Mon Jun 19 14:15:36 2017
#        Descriptor:     35    12     8     3     3     5
#        Energy - RMSD - RMSD MassCentre:     -36.5525    999.9999    999.9999
#        Receptor:       1  Surface Point:    99  Conformer:     0
#        Ligand:         1  Surface Point:     1  Conformer:     0
#        BUDE Formal Charge: 0
#        ATOM Count: 27
#        Heavy ATOM Count: 17
@<TRIPOS>MOLECULE
pdb1gcz_ligA.pdb_scan_R01_S0099_C0000_L00001_S0001_C0000_G0010_E0001
27 28 1 0 0
SMALL
GASTEIGER
@<TRIPOS>ATOM
       1 C3         3.9161   -2.6858    4.9867 C.3       1 YZ9900      0.0513 
       2 C11        3.9449   -1.2444    4.5652 C.3       1 YZ9900      0.2089 
       3 O1         2.2120   -1.9956    1.7124 O.2       1 YZ9900     -0.2447 
       4 O2         3.7811   -1.1563    3.0934 O.3       1 YZ9900     -0.4453 
       5 C6        -1.8879    1.1520    2.6248 C.ar      1 YZ9900      0.0063 
       6 C5         0.3398   -0.0068    2.3907 C.ar      1 YZ9900      0.0160 
       7 C4        -0.4802    3.6870    3.0967 C.ar      1 YZ9900      0.0796 
       8 O3         1.5877    2.4816    2.8528 O.2       1 YZ9900     -0.4208 
       9 C2        -0.4745    1.2254    2.6255 C.ar      1 YZ9900      0.0353 
      10 C1         0.1920    2.4679    2.8564 C.ar      1 YZ9900      0.1519 
      11 C7         2.3235    1.4015    2.7200 C.ar      1 YZ9900      0.3521 
      12 C12        2.5981   -1.1078    2.4100 C.2       1 YZ9900      0.3476 
      13 O4        -2.6535    4.6532    3.3107 O.3       1 YZ9900     -0.2865 
      14 O5         3.4828    1.5067    2.7800 O.2       1 YZ9900     -0.2442 
      15 C10       -2.6141    2.3546    2.8649 C.ar      1 YZ9900      0.0422 
      16 C9         1.7003    0.0893    2.5034 C.ar      1 YZ9900      0.1515 
      17 C8        -1.9070    3.5578    3.0883 C.ar      1 YZ9900      0.1988 
      18 H31        2.9730   -3.1365    4.6775 H         1 YZ9900      0.0000 
      19 H32        4.7438   -3.2178    4.5175 H         1 YZ9900      0.0000 
      20 H33        4.0112   -2.7492    6.0706 H         1 YZ9900      0.0000 
      21 H112       4.8986   -0.8012    4.8518 H         1 YZ9900      0.0000 
      22 H113       3.1326   -0.7065    5.0541 H         1 YZ9900      0.0000 
      23 H6        -2.3985    0.2171    2.4482 H         1 YZ9900      0.0000 
      24 H5        -0.1320   -0.9452    2.1395 H         1 YZ9900      0.0000 
      25 H4         0.0304    4.6228    3.2695 H         1 YZ9900      0.0000 
      26 HO4       -3.0619    4.5922    4.1773 H         1 YZ9900      0.0000 
      27 H10       -3.6941    2.3466    2.8762 H         1 YZ9900      0.0000 
@<TRIPOS>BOND
       1       13       17 1        
       2        7       17 ar       
       3        7       10 ar       
       4        8       10 ar       
       5        8       11 ar       
       6       14       11 2        
       7       17       15 ar       
       8       10        9 ar       
       9       11       16 ar       
      10        2        4 1        
      11        2        1 1        
      12       15        5 ar       
      13        9        5 ar       
      14        9        6 ar       
      15       16        6 ar       
      16       16       12 1        
      17        4       12 1        
      18       12        3 2        
      19       18        1 1        
      20       19        1 1        
      21       20        1 1        
      22       21        2 1        
      23       22        2 1        
      24       23        5 1        
      25       24        6 1        
      26       25        7 1        
      27       26       13 1        
      28       27       15 1        
@<TRIPOS>SUBSTRUCTURE
 1 YZ9900 10 RESIDUE 4 A YZ9900 0 ROOT

