#        scan_R01_S0099_C0000_L00001_S0001_C0003_G0010_E0001.mol2
#        Mon Jun 19 14:15:37 2017
#        Descriptor:      8    36    16     3     1     5
#        Energy - RMSD - RMSD MassCentre:     -42.1763    999.9999    999.9999
#        Receptor:       1  Surface Point:    99  Conformer:     0
#        Ligand:         1  Surface Point:     1  Conformer:     3
#        BUDE Formal Charge: 0
#        ATOM Count: 27
#        Heavy ATOM Count: 17
@<TRIPOS>MOLECULE
pdb1gcz_ligA.pdb_scan_R01_S0099_C0000_L00001_S0001_C0003_G0010_E0001
27 28 1 0 0
SMALL
GASTEIGER
@<TRIPOS>ATOM
       1 C3         7.9401   -0.4203    2.2791 C.3       1 YZ9900      0.0513 
       2 C11        7.4686   -1.3624    3.3831 C.3       1 YZ9900      0.2089 
       3 O1         5.7189    0.5921    3.5567 O.2       1 YZ9900     -0.2447 
       4 O2         6.0585   -1.5677    3.2633 O.3       1 YZ9900     -0.4453 
       5 C6         0.6254    1.2974    3.3353 C.ar      1 YZ9900      0.0063 
       6 C5         2.9616    0.3979    3.3529 C.ar      1 YZ9900      0.0160 
       7 C4        -0.3998   -1.2558    2.8977 C.ar      1 YZ9900      0.0796 
       8 O3         1.8276   -2.1766    2.9051 O.2       1 YZ9900     -0.4208 
       9 C2         1.4986    0.2094    3.2323 C.ar      1 YZ9900      0.0353 
      10 C1         0.9835   -1.0736    3.0123 C.ar      1 YZ9900      0.1519 
      11 C7         3.2038   -1.9941    3.0194 C.ar      1 YZ9900      0.3521 
      12 C12        5.2507   -0.4911    3.3689 C.2       1 YZ9900      0.3476 
      13 O4        -2.6242   -0.3987    2.8811 O.3       1 YZ9900     -0.2865 
      14 O5         3.9251   -2.9733    2.9225 O.2       1 YZ9900     -0.2442 
      15 C10       -0.7572    1.1095    3.2199 C.ar      1 YZ9900      0.0422 
      16 C9         3.7843   -0.6528    3.2519 C.ar      1 YZ9900      0.1515 
      17 C8        -1.2785   -0.1709    3.0000 C.ar      1 YZ9900      0.1988 
      18 H31        7.4348    0.5380    2.3807 H         1 YZ9900      0.0000 
      19 H32        9.0151   -0.2747    2.3621 H         1 YZ9900      0.0000 
      20 H33        7.7060   -0.8535    1.3090 H         1 YZ9900      0.0000 
      21 H112       7.6895   -0.9239    4.3539 H         1 YZ9900      0.0000 
      22 H113       7.9825   -2.3169    3.2901 H         1 YZ9900      0.0000 
      23 H6         1.0155    2.2901    3.5050 H         1 YZ9900      0.0000 
      24 H5         3.3490    1.3916    3.5225 H         1 YZ9900      0.0000 
      25 H4        -0.7925   -2.2476    2.7280 H         1 YZ9900      0.0000 
      26 HO4       -2.8043   -1.3372    2.7147 H         1 YZ9900      0.0000 
      27 H10       -1.4097    1.9661    3.3033 H         1 YZ9900      0.0000 
@<TRIPOS>BOND
       1       13       17 1        
       2        7       17 ar       
       3        7       10 ar       
       4        8       10 ar       
       5        8       11 ar       
       6       14       11 2        
       7       17       15 ar       
       8       10        9 ar       
       9       11       16 ar       
      10        2        4 1        
      11        2        1 1        
      12       15        5 ar       
      13        9        5 ar       
      14        9        6 ar       
      15       16        6 ar       
      16       16       12 1        
      17        4       12 1        
      18       12        3 2        
      19       18        1 1        
      20       19        1 1        
      21       20        1 1        
      22       21        2 1        
      23       22        2 1        
      24       23        5 1        
      25       24        6 1        
      26       25        7 1        
      27       26       13 1        
      28       27       15 1        
@<TRIPOS>SUBSTRUCTURE
 1 YZ9900 10 RESIDUE 4 A YZ9900 0 ROOT

