#        scan_R01_S0100_C0000_L00001_S0001_C0000_G0010_E0001.mol2
#        Mon Jun 19 14:43:42 2017
#        Descriptor:      2    19     5     3     1     6
#        Energy - RMSD - RMSD MassCentre:     -30.8362    999.9999    999.9999
#        Receptor:       1  Surface Point:   100  Conformer:     0
#        Ligand:         1  Surface Point:     1  Conformer:     0
#        BUDE Formal Charge: 0
#        ATOM Count: 27
#        Heavy ATOM Count: 17
@<TRIPOS>MOLECULE
pdb1gcz_ligA.pdb_scan_R01_S0100_C0000_L00001_S0001_C0000_G0010_E0001
27 28 1 0 0
SMALL
GASTEIGER
@<TRIPOS>ATOM
       1 C3         1.8771   -6.0175    3.6995 C.3       1 YZ9900      0.0513 
       2 C11        1.9335   -4.8557    4.6496 C.3       1 YZ9900      0.2089 
       3 O1         3.3270   -2.8821    2.2270 O.2       1 YZ9900     -0.2447 
       4 O2         2.9803   -3.9033    4.2046 O.3       1 YZ9900     -0.4453 
       5 C6        -0.4136    0.7998    2.1927 C.ar      1 YZ9900      0.0063 
       6 C5         1.3007   -0.9833    2.6847 C.ar      1 YZ9900      0.0160 
       7 C4        -0.4818    1.4738    5.0512 C.ar      1 YZ9900      0.0796 
       8 O3         1.1569   -0.2517    5.4063 O.2       1 YZ9900     -0.4208 
       9 C2         0.3924    0.1165    3.1342 C.ar      1 YZ9900      0.0353 
      10 C1         0.3457    0.4592    4.5205 C.ar      1 YZ9900      0.1519 
      11 C7         1.9084   -1.2672    5.0463 C.ar      1 YZ9900      0.3521 
      12 C12        2.8214   -2.8837    3.3080 C.2       1 YZ9900      0.3476 
      13 O4        -2.1095    3.1135    4.4477 O.3       1 YZ9900     -0.2865 
      14 O5         2.5135   -1.8309    5.8677 O.2       1 YZ9900     -0.2442 
      15 C10       -1.2689    1.8316    2.6774 C.ar      1 YZ9900      0.0422 
      16 C9         1.9831   -1.6860    3.6404 C.ar      1 YZ9900      0.1515 
      17 C8        -1.2781    2.1317    4.0585 C.ar      1 YZ9900      0.1988 
      18 H31        1.6641   -5.6551    2.6937 H         1 YZ9900      0.0000 
      19 H32        2.8359   -6.5362    3.7030 H         1 YZ9900      0.0000 
      20 H33        1.0911   -6.7048    4.0123 H         1 YZ9900      0.0000 
      21 H112       2.1720   -5.2160    5.6504 H         1 YZ9900      0.0000 
      22 H113       0.9670   -4.3519    4.6655 H         1 YZ9900      0.0000 
      23 H6        -0.3814    0.5481    1.1430 H         1 YZ9900      0.0000 
      24 H5         1.4149   -1.2162    1.6363 H         1 YZ9900      0.0000 
      25 H4        -0.5110    1.7281    6.1004 H         1 YZ9900      0.0000 
      26 HO4       -3.0175    2.8079    4.3860 H         1 YZ9900      0.0000 
      27 H10       -1.9039    2.3786    1.9962 H         1 YZ9900      0.0000 
@<TRIPOS>BOND
       1       13       17 1        
       2        7       17 ar       
       3        7       10 ar       
       4        8       10 ar       
       5        8       11 ar       
       6       14       11 2        
       7       17       15 ar       
       8       10        9 ar       
       9       11       16 ar       
      10        2        4 1        
      11        2        1 1        
      12       15        5 ar       
      13        9        5 ar       
      14        9        6 ar       
      15       16        6 ar       
      16       16       12 1        
      17        4       12 1        
      18       12        3 2        
      19       18        1 1        
      20       19        1 1        
      21       20        1 1        
      22       21        2 1        
      23       22        2 1        
      24       23        5 1        
      25       24        6 1        
      26       25        7 1        
      27       26       13 1        
      28       27       15 1        
@<TRIPOS>SUBSTRUCTURE
 1 YZ9900 10 RESIDUE 4 A YZ9900 0 ROOT

