#        1GCZ_R01_S0001_C0000_L00005_S0001_C0019_G0010_E0001.mol2
#        Tue Jun  6 09:55:45 2017
#        Descriptor:      2     4     2     9     6    14
#        Energy - RMSD - RMSD MassCentre:     -63.5317    999.9999    999.9999
#        Receptor:       1  Surface Point:     1  Conformer:     0
#        Ligand:         5  Surface Point:     1  Conformer:    19
#        BUDE Formal Charge: 0
#        ATOM Count: 55
#        Heavy ATOM Count: 30
@<TRIPOS>MOLECULE
ZINC61464195_1GCZ_R01_S0001_C0000_L00005_S0001_C0019_G0010_E0001
 55 56 0 0 0
SMALL
USER_CHARGES
@<TRIPOS>ATOM
       1 C1        -1.0921    1.3673   -0.5722 C.3       1 <0>        -0.1456 
       2 C2        -0.9208    0.0752    0.2214 C.3       1 <0>        -0.0579 
       3 C3         0.3088   -0.6740   -0.2841 C.3       1 <0>        -0.1456 
       4 C4        -0.7426    0.4039    1.6843 C.ar      1 <0>        -0.0771 
       5 C5        -1.6816   -0.0920    2.5963 C.ar      1 <0>        -0.0943 
       6 C6        -1.4928    0.1090    3.9689 C.ar      1 <0>        -0.0923 
       7 C7        -0.3676    0.7974    4.4380 C.ar      1 <0>        -0.1041 
       8 C8         0.5492    1.3422    3.5313 C.ar      1 <0>        -0.1315 
       9 C9         0.3353    1.1663    2.1589 C.ar      1 <0>        -0.0969 
      10 S1        -0.1138    0.9814    6.1801 S.3       1 <0>        -0.0341 
      11 C10        0.8608   -0.4243    6.8019 C.3       1 <0>        -0.1267 
      12 C11        0.1073   -1.7084    6.5505 C.2       1 <0>         0.4864 
      13 O1         0.4097   -2.4095    5.6313 O.2       1 <0>        -0.4815 
      14 O2        -0.9088   -2.0647    7.3648 O.3       1 <0>        -0.3231 
      15 C12       -1.5929   -3.2895    7.0873 C.3       1 <0>         0.0526 
      16 C13       -0.6308   -4.4450    7.2263 C.2       1 <0>         0.5250 
      17 O3        -0.4279   -5.1939    6.2718 O.2       1 <0>        -0.5082 
      18 N1        -0.0029   -4.6536    8.3799 N.am      1 <0>        -0.5981 
      19 C14       -0.2454   -3.7586    9.5205 C.3       1 <0>         0.0731 
      20 C15        0.9333   -5.7790    8.5134 C.3       1 <0>         0.1010 
      21 C16        2.1644   -5.3227    9.2595 C.2       1 <0>         0.4997 
      22 O4         2.5611   -5.9562   10.2362 O.2       1 <0>        -0.5061 
      23 N2         2.8189   -4.2361    8.8599 N.am      1 <0>        -0.6702 
      24 C17        3.9724   -3.8085    9.5589 C.ar      1 <0>         0.1553 
      25 C18        4.1890   -4.2296   10.8764 C.ar      1 <0>        -0.1106 
      26 C19        5.3354   -3.8099   11.5617 C.ar      1 <0>        -0.0959 
      27 C20        6.2589   -2.9660   10.9383 C.ar      1 <0>        -0.1208 
      28 C21        6.0365   -2.5332    9.6256 C.ar      1 <0>        -0.0919 
      29 C22        4.8946   -2.9587    8.9364 C.ar      1 <0>        -0.0639 
      30 Cl1        4.6124   -2.4199    7.3061 Cl        1 <0>        -0.0632 
      31 H1        -0.2037    1.9844   -0.4554 H         1 <0>         0.0596 
      32 H2        -1.2339    1.1298   -1.6244 H         1 <0>         0.0563 
      33 H3        -1.9608    1.9074   -0.2014 H         1 <0>         0.0575 
      34 H4        -1.8035   -0.5483    0.0954 H         1 <0>         0.0784 
      35 H5         0.4226   -1.6009    0.2740 H         1 <0>         0.0596 
      36 H6         1.1926   -0.0549   -0.1446 H         1 <0>         0.0574 
      37 H7         0.1861   -0.8992   -1.3415 H         1 <0>         0.0563 
      38 H8        -2.5466   -0.6441    2.2597 H         1 <0>         0.1285 
      39 H9        -2.1860   -0.2581    4.7113 H         1 <0>         0.1293 
      40 H10        1.4026    1.8870    3.9072 H         1 <0>         0.1227 
      41 H11        1.0328    1.6236    1.4729 H         1 <0>         0.1262 
      42 H12        1.8181   -0.4593    6.2858 H         1 <0>         0.1329 
      43 H13        1.0282   -0.3059    7.8704 H         1 <0>         0.1329 
      44 H14       -1.9849   -3.2647    6.0727 H         1 <0>         0.1063 
      45 H15       -2.4133   -3.4149    7.7908 H         1 <0>         0.1054 
      46 H16       -1.2977   -3.7979    9.7941 H         1 <0>         0.0686 
      47 H17        0.3619   -4.0763   10.3654 H         1 <0>         0.0794 
      48 H18        0.0204   -2.7402    9.2445 H         1 <0>         0.0778 
      49 H19        0.4534   -6.5858    9.0636 H         1 <0>         0.1198 
      50 H20        1.2180   -6.1325    7.5247 H         1 <0>         0.1233 
      51 H21        2.4922   -3.7166    8.0576 H         1 <0>         0.4142 
      52 H22        3.4790   -4.8815   11.3636 H         1 <0>         0.1473 
      53 H23        5.5045   -4.1420   12.5754 H         1 <0>         0.1337 
      54 H24        7.1450   -2.6456   11.4660 H         1 <0>         0.1349 
      55 H25        6.7459   -1.8760    9.1448 H         1 <0>         0.1385 
@<TRIPOS>BOND
       1        1        2 1        
       2        1       31 1        
       3        1       32 1        
       4        1       33 1        
       5        2        3 1        
       6        2        4 1        
       7        2       34 1        
       8        3       35 1        
       9        3       36 1        
      10        3       37 1        
      11        4        9 ar       
      12        4        5 ar       
      13        5        6 ar       
      14        5       38 1        
      15        6        7 ar       
      16        6       39 1        
      17        7        8 ar       
      18        7       10 1        
      19        8        9 ar       
      20        8       40 1        
      21        9       41 1        
      22       10       11 1        
      23       11       12 1        
      24       11       42 1        
      25       11       43 1        
      26       12       13 2        
      27       12       14 1        
      28       14       15 1        
      29       15       16 1        
      30       15       44 1        
      31       15       45 1        
      32       16       17 2        
      33       16       18 am       
      34       18       19 1        
      35       18       20 1        
      36       19       46 1        
      37       19       47 1        
      38       19       48 1        
      39       20       21 1        
      40       20       49 1        
      41       20       50 1        
      42       21       22 2        
      43       21       23 am       
      44       23       24 1        
      45       23       51 1        
      46       24       29 ar       
      47       24       25 ar       
      48       25       26 ar       
      49       25       52 1        
      50       26       27 ar       
      51       26       53 1        
      52       27       28 ar       
      53       27       54 1        
      54       28       29 ar       
      55       28       55 1        
      56       29       30 1        

