#        scan_R01_S0100_C0000_L00001_S0001_C0002_G0010_E0001.mol2
#        Mon Jun 19 14:43:43 2017
#        Descriptor:      4    21    31     3     1     6
#        Energy - RMSD - RMSD MassCentre:     -32.0690    999.9999    999.9999
#        Receptor:       1  Surface Point:   100  Conformer:     0
#        Ligand:         1  Surface Point:     1  Conformer:     2
#        BUDE Formal Charge: 0
#        ATOM Count: 27
#        Heavy ATOM Count: 17
@<TRIPOS>MOLECULE
pdb1gcz_ligA.pdb_scan_R01_S0100_C0000_L00001_S0001_C0002_G0010_E0001
27 28 1 0 0
SMALL
GASTEIGER
@<TRIPOS>ATOM
       1 C3         4.9295   -6.4776    7.0331 C.3       1 YZ9900      0.0513 
       2 C11        4.0239   -6.4515    5.8051 C.3       1 YZ9900      0.2089 
       3 O1         2.3940   -5.8110    3.8443 O.2       1 YZ9900     -0.2447 
       4 O2         3.4936   -5.1346    5.6330 O.3       1 YZ9900     -0.4453 
       5 C6        -0.1579   -1.7049    2.0782 C.ar      1 YZ9900      0.0063 
       6 C5         1.2660   -3.3292    3.3438 C.ar      1 YZ9900      0.0160 
       7 C4         0.5143    0.3335    3.8543 C.ar      1 YZ9900      0.0796 
       8 O3         1.8996   -1.1867    5.1109 O.2       1 YZ9900     -0.4208 
       9 C2         0.7052   -1.9740    3.1458 C.ar      1 YZ9900      0.0353 
      10 C1         1.0429   -0.9497    4.0383 C.ar      1 YZ9900      0.1519 
      11 C7         2.4250   -2.4639    5.2930 C.ar      1 YZ9900      0.3521 
      12 C12        2.6645   -4.9172    4.5899 C.2       1 YZ9900      0.3476 
      13 O4        -0.8417    1.8797    2.6487 O.3       1 YZ9900     -0.2865 
      14 O5         3.1732   -2.6499    6.2385 O.2       1 YZ9900     -0.2442 
      15 C10       -0.6836   -0.4198    1.8988 C.ar      1 YZ9900      0.0422 
      16 C9         2.0903   -3.5711    4.3699 C.ar      1 YZ9900      0.1515 
      17 C8        -0.3497    0.6087    2.7878 C.ar      1 YZ9900      0.1988 
      18 H31        4.3506   -6.2127    7.9155 H         1 YZ9900      0.0000 
      19 H32        5.3434   -7.4762    7.1563 H         1 YZ9900      0.0000 
      20 H33        5.7388   -5.7626    6.9013 H         1 YZ9900      0.0000 
      21 H112       3.2061   -7.1560    5.9416 H         1 YZ9900      0.0000 
      22 H113       4.5987   -6.7284    4.9239 H         1 YZ9900      0.0000 
      23 H6        -0.4229   -2.4901    1.3857 H         1 YZ9900      0.0000 
      24 H5         0.9993   -4.1125    2.6498 H         1 YZ9900      0.0000 
      25 H4         0.7779    1.1205    4.5455 H         1 YZ9900      0.0000 
      26 HO4       -0.5213    2.4560    3.3602 H         1 YZ9900      0.0000 
      27 H10       -1.3476   -0.2384    1.0666 H         1 YZ9900      0.0000 
@<TRIPOS>BOND
       1       13       17 1        
       2        7       17 ar       
       3        7       10 ar       
       4        8       10 ar       
       5        8       11 ar       
       6       14       11 2        
       7       17       15 ar       
       8       10        9 ar       
       9       11       16 ar       
      10        2        4 1        
      11        2        1 1        
      12       15        5 ar       
      13        9        5 ar       
      14        9        6 ar       
      15       16        6 ar       
      16       16       12 1        
      17        4       12 1        
      18       12        3 2        
      19       18        1 1        
      20       19        1 1        
      21       20        1 1        
      22       21        2 1        
      23       22        2 1        
      24       23        5 1        
      25       24        6 1        
      26       25        7 1        
      27       26       13 1        
      28       27       15 1        
@<TRIPOS>SUBSTRUCTURE
 1 YZ9900 10 RESIDUE 4 A YZ9900 0 ROOT

