#        scan_R01_S0100_C0000_L00001_S0001_C0003_G0010_E0001.mol2
#        Mon Jun 19 14:43:43 2017
#        Descriptor:     19    14     1     3     3     3
#        Energy - RMSD - RMSD MassCentre:     -33.0961    999.9999    999.9999
#        Receptor:       1  Surface Point:   100  Conformer:     0
#        Ligand:         1  Surface Point:     1  Conformer:     3
#        BUDE Formal Charge: 0
#        ATOM Count: 27
#        Heavy ATOM Count: 17
@<TRIPOS>MOLECULE
pdb1gcz_ligA.pdb_scan_R01_S0100_C0000_L00001_S0001_C0003_G0010_E0001
27 28 1 0 0
SMALL
GASTEIGER
@<TRIPOS>ATOM
       1 C3         7.0593    3.7698   -1.1526 C.3       1 YZ9900      0.0513 
       2 C11        6.8269    2.3120   -1.5391 C.3       1 YZ9900      0.2089 
       3 O1         5.8112    2.3972    0.8843 O.2       1 YZ9900     -0.2447 
       4 O2         5.4732    1.9531   -1.2499 O.3       1 YZ9900     -0.4453 
       5 C6         1.3563    1.4481    3.2810 C.ar      1 YZ9900      0.0063 
       6 C5         3.2265    1.7451    1.6434 C.ar      1 YZ9900      0.0160 
       7 C4        -0.3503    0.6098    1.2448 C.ar      1 YZ9900      0.0796 
       8 O3         1.4138    0.8778   -0.3756 O.2       1 YZ9900     -0.4208 
       9 C2         1.8295    1.3785    1.9664 C.ar      1 YZ9900      0.0353 
      10 C1         0.9720    0.9573    0.9432 C.ar      1 YZ9900      0.1519 
      11 C7         2.7296    1.2238   -0.6745 C.ar      1 YZ9900      0.3521 
      12 C12        5.0566    2.0343    0.0317 C.2       1 YZ9900      0.3476 
      13 O4        -2.1307    0.3272    2.8046 O.3       1 YZ9900     -0.2865 
      14 O5         3.0962    1.1471   -1.8356 O.2       1 YZ9900     -0.2442 
      15 C10        0.0331    1.0994    3.5771 C.ar      1 YZ9900      0.0422 
      16 C9         3.6645    1.6735    0.3810 C.ar      1 YZ9900      0.1515 
      17 C8        -0.8293    0.6774    2.5584 C.ar      1 YZ9900      0.1988 
      18 H31        6.8820    3.8943   -0.0863 H         1 YZ9900      0.0000 
      19 H32        8.0855    4.0468   -1.3851 H         1 YZ9900      0.0000 
      20 H33        6.3760    4.4058   -1.7113 H         1 YZ9900      0.0000 
      21 H112       7.5000    1.6737   -0.9707 H         1 YZ9900      0.0000 
      22 H113       7.0161    2.1836   -2.6028 H         1 YZ9900      0.0000 
      23 H6         2.0121    1.7722    4.0756 H         1 YZ9900      0.0000 
      24 H5         3.8801    2.0688    2.4399 H         1 YZ9900      0.0000 
      25 H4        -1.0081    0.2854    0.4520 H         1 YZ9900      0.0000 
      26 HO4       -2.5846    0.0782    1.9842 H         1 YZ9900      0.0000 
      27 H10       -0.3073    1.1619    4.6001 H         1 YZ9900      0.0000 
@<TRIPOS>BOND
       1       13       17 1        
       2        7       17 ar       
       3        7       10 ar       
       4        8       10 ar       
       5        8       11 ar       
       6       14       11 2        
       7       17       15 ar       
       8       10        9 ar       
       9       11       16 ar       
      10        2        4 1        
      11        2        1 1        
      12       15        5 ar       
      13        9        5 ar       
      14        9        6 ar       
      15       16        6 ar       
      16       16       12 1        
      17        4       12 1        
      18       12        3 2        
      19       18        1 1        
      20       19        1 1        
      21       20        1 1        
      22       21        2 1        
      23       22        2 1        
      24       23        5 1        
      25       24        6 1        
      26       25        7 1        
      27       26       13 1        
      28       27       15 1        
@<TRIPOS>SUBSTRUCTURE
 1 YZ9900 10 RESIDUE 4 A YZ9900 0 ROOT

