#        scan_R01_S0100_C0000_L00001_S0001_C0003_G0010_E0001.mol2
#        Mon Jun 19 14:15:39 2017
#        Descriptor:     14    18    31     3     1     6
#        Energy - RMSD - RMSD MassCentre:     -31.6344    999.9999    999.9999
#        Receptor:       1  Surface Point:   100  Conformer:     0
#        Ligand:         1  Surface Point:     1  Conformer:     3
#        BUDE Formal Charge: 0
#        ATOM Count: 27
#        Heavy ATOM Count: 17
@<TRIPOS>MOLECULE
pdb1gcz_ligA.pdb_scan_R01_S0100_C0000_L00001_S0001_C0003_G0010_E0001
27 28 1 0 0
SMALL
GASTEIGER
@<TRIPOS>ATOM
       1 C3         4.4250   -6.3806    6.8879 C.3       1 YZ9900      0.0513 
       2 C11        4.0158   -6.5662    5.4295 C.3       1 YZ9900      0.2089 
       3 O1         1.9398   -5.2892    6.4150 O.2       1 YZ9900     -0.2447 
       4 O2         3.5472   -5.3213    4.9047 O.3       1 YZ9900     -0.4453 
       5 C6        -0.7316   -0.9677    5.5910 C.ar      1 YZ9900      0.0063 
       6 C5         0.8833   -2.8800    5.5422 C.ar      1 YZ9900      0.0160 
       7 C4         0.5541    0.2287    3.4284 C.ar      1 YZ9900      0.0796 
       8 O3         2.1366   -1.5868    3.3350 O.2       1 YZ9900     -0.4208 
       9 C2         0.3806   -1.5914    5.0158 C.ar      1 YZ9900      0.0353 
      10 C1         1.0267   -0.9902    3.9291 C.ar      1 YZ9900      0.1519 
      11 C7         2.6059   -2.7997    3.8341 C.ar      1 YZ9900      0.3521 
      12 C12        2.4709   -4.7528    5.4887 C.2       1 YZ9900      0.3476 
      13 O4        -0.9841    2.0494    3.4753 O.3       1 YZ9900     -0.2865 
      14 O5         3.5791   -3.3051    3.2994 O.2       1 YZ9900     -0.2442 
      15 C10       -1.2001    0.2512    5.0863 C.ar      1 YZ9900      0.0422 
      16 C9         1.9486   -3.4645    4.9813 C.ar      1 YZ9900      0.1515 
      17 C8        -0.5585    0.8575    3.9998 C.ar      1 YZ9900      0.1988 
      18 H31        3.5630   -6.0562    7.4672 H         1 YZ9900      0.0000 
      19 H32        4.7940   -7.3246    7.2833 H         1 YZ9900      0.0000 
      20 H33        5.2090   -5.6290    6.9510 H         1 YZ9900      0.0000 
      21 H112       3.2219   -7.3074    5.3664 H         1 YZ9900      0.0000 
      22 H113       4.8739   -6.9027    4.8515 H         1 YZ9900      0.0000 
      23 H6        -1.2351   -1.4256    6.4296 H         1 YZ9900      0.0000 
      24 H5         0.3779   -3.3357    6.3808 H         1 YZ9900      0.0000 
      25 H4         1.0558    0.6887    2.5898 H         1 YZ9900      0.0000 
      26 HO4       -0.4147    2.3290    2.7414 H         1 YZ9900      0.0000 
      27 H10       -2.0607    0.7120    5.5484 H         1 YZ9900      0.0000 
@<TRIPOS>BOND
       1       13       17 1        
       2        7       17 ar       
       3        7       10 ar       
       4        8       10 ar       
       5        8       11 ar       
       6       14       11 2        
       7       17       15 ar       
       8       10        9 ar       
       9       11       16 ar       
      10        2        4 1        
      11        2        1 1        
      12       15        5 ar       
      13        9        5 ar       
      14        9        6 ar       
      15       16        6 ar       
      16       16       12 1        
      17        4       12 1        
      18       12        3 2        
      19       18        1 1        
      20       19        1 1        
      21       20        1 1        
      22       21        2 1        
      23       22        2 1        
      24       23        5 1        
      25       24        6 1        
      26       25        7 1        
      27       26       13 1        
      28       27       15 1        
@<TRIPOS>SUBSTRUCTURE
 1 YZ9900 10 RESIDUE 4 A YZ9900 0 ROOT

