#        1GCZ_R01_S0001_C0000_L00005_S0001_C0019_G0010_E0001.mol2
#        Tue Jun  6 14:06:12 2017
#        Descriptor:     21    15    22    11     7    13
#        Energy - RMSD - RMSD MassCentre:     -67.3269    999.9999    999.9999
#        Receptor:       1  Surface Point:     1  Conformer:     0
#        Ligand:         5  Surface Point:     1  Conformer:    19
#        BUDE Formal Charge: 0
#        ATOM Count: 55
#        Heavy ATOM Count: 30
@<TRIPOS>MOLECULE
ZINC61464195_1GCZ_R01_S0001_C0000_L00005_S0001_C0019_G0010_E0001
 55 56 0 0 0
SMALL
USER_CHARGES
@<TRIPOS>ATOM
       1 C1        -1.7324    1.0394   -0.6881 C.3       1 <0>        -0.1456 
       2 C2        -0.8558   -0.0400   -0.0596 C.3       1 <0>        -0.0579 
       3 C3         0.4286   -0.1892   -0.8700 C.3       1 <0>        -0.1456 
       4 C4        -0.5130    0.3531    1.3574 C.ar      1 <0>        -0.0771 
       5 C5        -0.9225   -0.4884    2.3984 C.ar      1 <0>        -0.0943 
       6 C6        -0.5363   -0.2070    3.7143 C.ar      1 <0>        -0.0923 
       7 C7         0.2627    0.9072    3.9973 C.ar      1 <0>        -0.1041 
       8 C8         0.6332    1.7832    2.9703 C.ar      1 <0>        -0.1315 
       9 C9         0.2143    1.5136    1.6619 C.ar      1 <0>        -0.0969 
      10 S1         0.7956    1.2065    5.6586 S.3       1 <0>        -0.0341 
      11 C10        2.3868    0.3704    5.9440 C.3       1 <0>        -0.1267 
      12 C11        2.2157   -1.1167    5.7458 C.2       1 <0>         0.4864 
      13 O1         2.5741   -1.6298    4.7279 O.2       1 <0>        -0.4815 
      14 O2         1.6574   -1.8671    6.7193 O.3       1 <0>        -0.3231 
      15 C12        1.5161   -3.2709    6.4863 C.3       1 <0>         0.0526 
      16 C13        2.8823   -3.8934    6.3249 C.2       1 <0>         0.5250 
      17 O3         3.1659   -4.4932    5.2892 O.2       1 <0>        -0.5082 
      18 N1         3.7791   -3.7938    7.3019 N.am      1 <0>        -0.5981 
      19 C14        3.4402   -3.0770    8.5398 C.3       1 <0>         0.0731 
      20 C15        5.1086   -4.4005    7.1432 C.3       1 <0>         0.1010 
      21 C16        6.1609   -3.4459    7.6547 C.2       1 <0>         0.4997 
      22 O4         6.9960   -3.8317    8.4710 O.2       1 <0>        -0.5061 
      23 N2         6.1840   -2.1884    7.2221 N.am      1 <0>        -0.6702 
      24 C17        7.1700   -1.2938    7.7013 C.ar      1 <0>         0.1553 
      25 C18        7.8328   -1.5618    8.9050 C.ar      1 <0>        -0.1106 
      26 C19        8.8128   -0.6775    9.3716 C.ar      1 <0>        -0.0959 
      27 C20        9.1251    0.4747    8.6448 C.ar      1 <0>        -0.1208 
      28 C21        8.4533    0.7506    7.4479 C.ar      1 <0>        -0.0919 
      29 C22        7.4788   -0.1368    6.9760 C.ar      1 <0>        -0.0639 
      30 Cl1        6.6387    0.2045    5.4909 Cl        1 <0>        -0.0632 
      31 H1        -1.1893    1.9821   -0.7056 H         1 <0>         0.0596 
      32 H2        -1.9904    0.7499   -1.7046 H         1 <0>         0.0563 
      33 H3        -2.6414    1.1547   -0.1014 H         1 <0>         0.0575 
      34 H4        -1.3931   -0.9860   -0.0529 H         1 <0>         0.0784 
      35 H5         1.0470   -0.9676   -0.4282 H         1 <0>         0.0596 
      36 H6         0.9719    0.7535   -0.8641 H         1 <0>         0.0574 
      37 H7         0.1810   -0.4595   -1.8944 H         1 <0>         0.0563 
      38 H8        -1.5217   -1.3653    2.2021 H         1 <0>         0.1285 
      39 H9        -0.8228   -0.8281    4.5500 H         1 <0>         0.1293 
      40 H10        1.2340    2.6490    3.2065 H         1 <0>         0.1227 
      41 H11        0.4787    2.2186    0.8878 H         1 <0>         0.1262 
      42 H12        3.1264    0.7468    5.2402 H         1 <0>         0.1329 
      43 H13        2.7216    0.5640    6.9609 H         1 <0>         0.1329 
      44 H14        0.9355   -3.4321    5.5804 H         1 <0>         0.1063 
      45 H15        1.0065   -3.7299    7.3309 H         1 <0>         0.1054 
      46 H16        2.5948   -3.5648    9.0205 H         1 <0>         0.0686 
      47 H17        4.2963   -3.0888    9.2109 H         1 <0>         0.0794 
      48 H18        3.1788   -2.0479    8.3022 H         1 <0>         0.0778 
      49 H19        5.1533   -5.3281    7.7102 H         1 <0>         0.1198 
      50 H20        5.2881   -4.6090    6.0906 H         1 <0>         0.1233 
      51 H21        5.4976   -1.8727    6.5516 H         1 <0>         0.4142 
      52 H22        7.5957   -2.4503    9.4714 H         1 <0>         0.1473 
      53 H23        9.3283   -0.8899   10.2966 H         1 <0>         0.1337 
      54 H24        9.8839    1.1545    9.0032 H         1 <0>         0.1349 
      55 H25        8.6890    1.6438    6.8884 H         1 <0>         0.1385 
@<TRIPOS>BOND
       1        1        2 1        
       2        1       31 1        
       3        1       32 1        
       4        1       33 1        
       5        2        3 1        
       6        2        4 1        
       7        2       34 1        
       8        3       35 1        
       9        3       36 1        
      10        3       37 1        
      11        4        9 ar       
      12        4        5 ar       
      13        5        6 ar       
      14        5       38 1        
      15        6        7 ar       
      16        6       39 1        
      17        7        8 ar       
      18        7       10 1        
      19        8        9 ar       
      20        8       40 1        
      21        9       41 1        
      22       10       11 1        
      23       11       12 1        
      24       11       42 1        
      25       11       43 1        
      26       12       13 2        
      27       12       14 1        
      28       14       15 1        
      29       15       16 1        
      30       15       44 1        
      31       15       45 1        
      32       16       17 2        
      33       16       18 am       
      34       18       19 1        
      35       18       20 1        
      36       19       46 1        
      37       19       47 1        
      38       19       48 1        
      39       20       21 1        
      40       20       49 1        
      41       20       50 1        
      42       21       22 2        
      43       21       23 am       
      44       23       24 1        
      45       23       51 1        
      46       24       29 ar       
      47       24       25 ar       
      48       25       26 ar       
      49       25       52 1        
      50       26       27 ar       
      51       26       53 1        
      52       27       28 ar       
      53       27       54 1        
      54       28       29 ar       
      55       28       55 1        
      56       29       30 1        

