#        1GCZ_R01_S0001_C0000_L00005_S0001_C0020_G0010_E0001.mol2
#        Tue Jun  6 14:06:14 2017
#        Descriptor:     31    12    26     9     8    15
#        Energy - RMSD - RMSD MassCentre:     -55.8367    999.9999    999.9999
#        Receptor:       1  Surface Point:     1  Conformer:     0
#        Ligand:         5  Surface Point:     1  Conformer:    20
#        BUDE Formal Charge: 0
#        ATOM Count: 55
#        Heavy ATOM Count: 30
@<TRIPOS>MOLECULE
ZINC61464195_1GCZ_R01_S0001_C0000_L00005_S0001_C0020_G0010_E0001
 55 56 0 0 0
SMALL
USER_CHARGES
@<TRIPOS>ATOM
       1 C1        -2.9310    0.2041    5.5431 C.3       1 <0>        -0.1456 
       2 C2        -2.0061    0.4504    6.7317 C.3       1 <0>        -0.0579 
       3 C3        -2.8285    0.9183    7.9289 C.3       1 <0>        -0.1456 
       4 C4        -1.2893   -0.8309    7.0844 C.ar      1 <0>        -0.0771 
       5 C5        -1.0386   -1.7553    6.0635 C.ar      1 <0>        -0.0943 
       6 C6        -0.2896   -2.9065    6.3349 C.ar      1 <0>        -0.0923 
       7 C7         0.2170   -3.1382    7.6192 C.ar      1 <0>        -0.1041 
       8 C8        -0.0729   -2.2462    8.6585 C.ar      1 <0>        -0.1315 
       9 C9        -0.8513   -1.1148    8.3868 C.ar      1 <0>        -0.0969 
      10 S1         1.2182   -4.5657    7.9241 S.3       1 <0>        -0.0341 
      11 C10        2.9670   -4.1514    7.6367 C.3       1 <0>        -0.1267 
      12 C11        3.1521   -3.7219    6.2009 C.2       1 <0>         0.4864 
      13 O1         3.6069   -4.4853    5.4019 O.2       1 <0>        -0.4815 
      14 O2         2.8037   -2.4747    5.8196 O.3       1 <0>        -0.3231 
      15 C12        2.9973   -2.1133    4.4496 C.3       1 <0>         0.0526 
      16 C13        2.5468   -0.6878    4.2375 C.2       1 <0>         0.5250 
      17 O3         1.6649   -0.4376    3.4174 O.2       1 <0>        -0.5082 
      18 N1         3.1029    0.2973    4.9367 N.am      1 <0>        -0.5981 
      19 C14        4.1568   -0.0017    5.9168 C.3       1 <0>         0.0731 
      20 C15        2.6631    1.6846    4.7288 C.3       1 <0>         0.1010 
      21 C16        2.5275    2.3743    6.0654 C.2       1 <0>         0.4997 
      22 O4         3.0824    3.4548    6.2584 O.2       1 <0>        -0.5061 
      23 N2         1.8082    1.8128    7.0329 N.am      1 <0>        -0.6702 
      24 C17        1.6810    2.4590    8.2852 C.ar      1 <0>         0.1553 
      25 C18        1.7723    1.7166    9.4686 C.ar      1 <0>        -0.1106 
      26 C19        1.6531    2.3614   10.7056 C.ar      1 <0>        -0.0959 
      27 C20        1.4353    3.7408   10.7626 C.ar      1 <0>        -0.1208 
      28 C21        1.3302    4.4820    9.5796 C.ar      1 <0>        -0.0919 
      29 C22        1.4573    3.8398    8.3420 C.ar      1 <0>        -0.0639 
      30 Cl1        1.3233    4.7569    6.8693 Cl        1 <0>        -0.0632 
      31 H1        -3.6684   -0.5505    5.8086 H         1 <0>         0.0596 
      32 H2        -3.4375    1.1305    5.2805 H         1 <0>         0.0563 
      33 H3        -2.3453   -0.1429    4.6944 H         1 <0>         0.0575 
      34 H4        -1.2759    1.2139    6.4717 H         1 <0>         0.0784 
      35 H5        -2.1666    1.1054    8.7718 H         1 <0>         0.0596 
      36 H6        -3.5488    0.1480    8.1966 H         1 <0>         0.0574 
      37 H7        -3.3555    1.8343    7.6703 H         1 <0>         0.0563 
      38 H8        -1.4012   -1.5880    5.0600 H         1 <0>         0.1285 
      39 H9        -0.0658   -3.6460    5.5804 H         1 <0>         0.1293 
      40 H10        0.3090   -2.4477    9.6484 H         1 <0>         0.1227 
      41 H11       -1.0952   -0.4564    9.2072 H         1 <0>         0.1262 
      42 H12        3.2615   -3.3394    8.2982 H         1 <0>         0.1329 
      43 H13        3.5848   -5.0246    7.8358 H         1 <0>         0.1329 
      44 H14        2.4142   -2.7758    3.8133 H         1 <0>         0.1063 
      45 H15        4.0517   -2.2013    4.1961 H         1 <0>         0.1054 
      46 H16        5.0026   -0.4615    5.4099 H         1 <0>         0.0686 
      47 H17        4.4779    0.9208    6.3959 H         1 <0>         0.0794 
      48 H18        3.7685   -0.6856    6.6687 H         1 <0>         0.0778 
      49 H19        3.3975    2.2100    4.1218 H         1 <0>         0.1198 
      50 H20        1.7018    1.6872    4.2195 H         1 <0>         0.1233 
      51 H21        1.3529    0.9254    6.8732 H         1 <0>         0.4142 
      52 H22        1.9402    0.6503    9.4313 H         1 <0>         0.1473 
      53 H23        1.7314    1.7879   11.6177 H         1 <0>         0.1337 
      54 H24        1.3473    4.2383   11.7171 H         1 <0>         0.1349 
      55 H25        1.1554    5.5469    9.6217 H         1 <0>         0.1385 
@<TRIPOS>BOND
       1        1        2 1        
       2        1       31 1        
       3        1       32 1        
       4        1       33 1        
       5        2        3 1        
       6        2        4 1        
       7        2       34 1        
       8        3       35 1        
       9        3       36 1        
      10        3       37 1        
      11        4        9 ar       
      12        4        5 ar       
      13        5        6 ar       
      14        5       38 1        
      15        6        7 ar       
      16        6       39 1        
      17        7        8 ar       
      18        7       10 1        
      19        8        9 ar       
      20        8       40 1        
      21        9       41 1        
      22       10       11 1        
      23       11       12 1        
      24       11       42 1        
      25       11       43 1        
      26       12       13 2        
      27       12       14 1        
      28       14       15 1        
      29       15       16 1        
      30       15       44 1        
      31       15       45 1        
      32       16       17 2        
      33       16       18 am       
      34       18       19 1        
      35       18       20 1        
      36       19       46 1        
      37       19       47 1        
      38       19       48 1        
      39       20       21 1        
      40       20       49 1        
      41       20       50 1        
      42       21       22 2        
      43       21       23 am       
      44       23       24 1        
      45       23       51 1        
      46       24       29 ar       
      47       24       25 ar       
      48       25       26 ar       
      49       25       52 1        
      50       26       27 ar       
      51       26       53 1        
      52       27       28 ar       
      53       27       54 1        
      54       28       29 ar       
      55       28       55 1        
      56       29       30 1        

