#        1GCZ_R01_S0001_C0000_L00005_S0001_C0021_G0010_E0001.mol2
#        Tue Jun  6 09:55:46 2017
#        Descriptor:      3    17    21     8    10    13
#        Energy - RMSD - RMSD MassCentre:     -74.4177    999.9999    999.9999
#        Receptor:       1  Surface Point:     1  Conformer:     0
#        Ligand:         5  Surface Point:     1  Conformer:    21
#        BUDE Formal Charge: 0
#        ATOM Count: 55
#        Heavy ATOM Count: 30
@<TRIPOS>MOLECULE
ZINC61464195_1GCZ_R01_S0001_C0000_L00005_S0001_C0021_G0010_E0001
 55 56 0 0 0
SMALL
USER_CHARGES
@<TRIPOS>ATOM
       1 C1         1.2727    0.3193   -2.7734 C.3       1 <0>        -0.1456 
       2 C2        -0.1307    0.4240   -2.1834 C.3       1 <0>        -0.0579 
       3 C3        -0.9648   -0.7704   -2.6378 C.3       1 <0>        -0.1456 
       4 C4        -0.0427    0.4309   -0.6761 C.ar      1 <0>        -0.0771 
       5 C5        -0.5275    1.5490    0.0130 C.ar      1 <0>        -0.0943 
       6 C6        -0.5532    1.5470    1.4127 C.ar      1 <0>        -0.0923 
       7 C7        -0.1035    0.4321    2.1301 C.ar      1 <0>        -0.1041 
       8 C8         0.4314   -0.6692    1.4512 C.ar      1 <0>        -0.1315 
       9 C9         0.4852   -0.6455    0.0525 C.ar      1 <0>        -0.0969 
      10 S1        -0.2079    0.4240    3.8971 S.3       1 <0>        -0.0341 
      11 C10       -1.8106   -0.2722    4.4060 C.3       1 <0>        -0.1267 
      12 C11       -1.8995   -0.2790    5.9133 C.2       1 <0>         0.4864 
      13 O1        -1.7095   -1.2912    6.5194 O.2       1 <0>        -0.4815 
      14 O2        -2.1939    0.8592    6.5768 O.3       1 <0>        -0.3231 
      15 C12       -2.2672    0.8039    8.0038 C.3       1 <0>         0.0526 
      16 C13       -2.6058    2.1732    8.5430 C.2       1 <0>         0.5250 
      17 O3        -3.6149    2.3316    9.2283 O.2       1 <0>        -0.5082 
      18 N1        -1.8137    3.2079    8.2773 N.am      1 <0>        -0.5981 
      19 C14       -2.1447    4.5402    8.8029 C.3       1 <0>         0.0731 
      20 C15       -0.6077    3.0186    7.4584 C.3       1 <0>         0.1010 
      21 C16        0.5410    3.7834    8.0713 C.2       1 <0>         0.4997 
      22 O4         1.2013    4.5582    7.3810 O.2       1 <0>        -0.5061 
      23 N2         0.8380    3.6188    9.3573 N.am      1 <0>        -0.6702 
      24 C17        1.9145    4.3356    9.9317 C.ar      1 <0>         0.1553 
      25 C18        2.9179    4.8668    9.1128 C.ar      1 <0>        -0.1106 
      26 C19        3.9773    5.5814    9.6848 C.ar      1 <0>        -0.0959 
      27 C20        4.0404    5.7586   11.0697 C.ar      1 <0>        -0.1208 
      28 C21        3.0447    5.2162   11.8907 C.ar      1 <0>        -0.0919 
      29 C22        1.9805    4.5082   11.3194 C.ar      1 <0>        -0.0639 
      30 Cl1        0.7429    3.8290   12.3365 Cl        1 <0>        -0.0632 
      31 H1         1.7360   -0.6080   -2.4432 H         1 <0>         0.0596 
      32 H2         1.2103    0.3277   -3.8596 H         1 <0>         0.0563 
      33 H3         1.8705    1.1640   -2.4373 H         1 <0>         0.0575 
      34 H4        -0.5999    1.3450   -2.5229 H         1 <0>         0.0784 
      35 H5        -1.9688   -0.6883   -2.2267 H         1 <0>         0.0596 
      36 H6        -0.5022   -1.6900   -2.2856 H         1 <0>         0.0574 
      37 H7        -1.0170   -0.7831   -3.7245 H         1 <0>         0.0563 
      38 H8        -0.8991    2.4123   -0.5188 H         1 <0>         0.1285 
      39 H9        -0.9219    2.3828    1.9888 H         1 <0>         0.1293 
      40 H10        0.7918   -1.5144    2.0187 H         1 <0>         0.1227 
      41 H11        0.9336   -1.4877   -0.4534 H         1 <0>         0.1262 
      42 H12       -2.6163    0.3349    3.9985 H         1 <0>         0.1329 
      43 H13       -1.8989   -1.2907    4.0335 H         1 <0>         0.1329 
      44 H14       -1.3076    0.4841    8.4048 H         1 <0>         0.1063 
      45 H15       -3.0389    0.0969    8.3010 H         1 <0>         0.1054 
      46 H16       -2.1615    4.5065    9.8903 H         1 <0>         0.0686 
      47 H17       -1.3948    5.2561    8.4731 H         1 <0>         0.0794 
      48 H18       -3.1227    4.8423    8.4338 H         1 <0>         0.0778 
      49 H19       -0.3594    1.9600    7.4190 H         1 <0>         0.1198 
      50 H20       -0.7927    3.3862    6.4512 H         1 <0>         0.1233 
      51 H21        0.2951    2.9824    9.9233 H         1 <0>         0.4142 
      52 H22        2.8750    4.7329    8.0419 H         1 <0>         0.1473 
      53 H23        4.7466    5.9970    9.0506 H         1 <0>         0.1337 
      54 H24        4.8558    6.3133   11.5101 H         1 <0>         0.1349 
      55 H25        3.0954    5.3467   12.9616 H         1 <0>         0.1385 
@<TRIPOS>BOND
       1        1        2 1        
       2        1       31 1        
       3        1       32 1        
       4        1       33 1        
       5        2        3 1        
       6        2        4 1        
       7        2       34 1        
       8        3       35 1        
       9        3       36 1        
      10        3       37 1        
      11        4        9 ar       
      12        4        5 ar       
      13        5        6 ar       
      14        5       38 1        
      15        6        7 ar       
      16        6       39 1        
      17        7        8 ar       
      18        7       10 1        
      19        8        9 ar       
      20        8       40 1        
      21        9       41 1        
      22       10       11 1        
      23       11       12 1        
      24       11       42 1        
      25       11       43 1        
      26       12       13 2        
      27       12       14 1        
      28       14       15 1        
      29       15       16 1        
      30       15       44 1        
      31       15       45 1        
      32       16       17 2        
      33       16       18 am       
      34       18       19 1        
      35       18       20 1        
      36       19       46 1        
      37       19       47 1        
      38       19       48 1        
      39       20       21 1        
      40       20       49 1        
      41       20       50 1        
      42       21       22 2        
      43       21       23 am       
      44       23       24 1        
      45       23       51 1        
      46       24       29 ar       
      47       24       25 ar       
      48       25       26 ar       
      49       25       52 1        
      50       26       27 ar       
      51       26       53 1        
      52       27       28 ar       
      53       27       54 1        
      54       28       29 ar       
      55       28       55 1        
      56       29       30 1        

