#        1GCZ_R01_S0001_C0000_L00005_S0001_C0021_G0010_E0001.mol2
#        Tue Jun  6 14:06:16 2017
#        Descriptor:     16    19    19    13     9    14
#        Energy - RMSD - RMSD MassCentre:     -53.3384    999.9999    999.9999
#        Receptor:       1  Surface Point:     1  Conformer:     0
#        Ligand:         5  Surface Point:     1  Conformer:    21
#        BUDE Formal Charge: 0
#        ATOM Count: 55
#        Heavy ATOM Count: 30
@<TRIPOS>MOLECULE
ZINC61464195_1GCZ_R01_S0001_C0000_L00005_S0001_C0021_G0010_E0001
 55 56 0 0 0
SMALL
USER_CHARGES
@<TRIPOS>ATOM
       1 C1         3.2555    8.0479    9.4862 C.3       1 <0>        -0.1456 
       2 C2         2.4544    6.7804    9.7695 C.3       1 <0>        -0.0579 
       3 C3         0.9627    7.0902    9.6813 C.3       1 <0>        -0.1456 
       4 C4         2.8091    5.7238    8.7509 C.ar      1 <0>        -0.0771 
       5 C5         3.3669    4.5229    9.2053 C.ar      1 <0>        -0.0943 
       6 C6         3.6151    3.4840    8.3003 C.ar      1 <0>        -0.0923 
       7 C7         3.3036    3.6338    6.9437 C.ar      1 <0>        -0.1041 
       8 C8         2.7945    4.8494    6.4714 C.ar      1 <0>        -0.1315 
       9 C9         2.5811    5.8953    7.3772 C.ar      1 <0>        -0.0969 
      10 S1         3.5626    2.2837    5.8287 S.3       1 <0>        -0.0341 
      11 C10        2.0568    1.2643    5.7518 C.3       1 <0>        -0.1267 
      12 C11        2.2778    0.1126    4.8007 C.2       1 <0>         0.4864 
      13 O1         1.8330    0.1579    3.6925 O.2       1 <0>        -0.4815 
      14 O2         2.9783   -0.9692    5.2026 O.3       1 <0>        -0.3231 
      15 C12        3.1617   -2.0351    4.2671 C.3       1 <0>         0.0526 
      16 C13        3.9658   -3.1378    4.9131 C.2       1 <0>         0.5250 
      17 O3         3.4967   -4.2717    4.9979 O.2       1 <0>        -0.5082 
      18 N1         5.1808   -2.8840    5.3905 N.am      1 <0>        -0.5981 
      19 C14        5.9623   -3.9587    6.0190 C.3       1 <0>         0.0731 
      20 C15        5.7416   -1.5289    5.2890 C.3       1 <0>         0.1010 
      21 C16        7.1899   -1.6144    4.8707 C.2       1 <0>         0.4997 
      22 O4         8.0530   -1.0263    5.5204 O.2       1 <0>        -0.5061 
      23 N2         7.5315   -2.3257    3.8000 N.am      1 <0>        -0.6702 
      24 C17        8.8888   -2.4059    3.4080 C.ar      1 <0>         0.1553 
      25 C18        9.8013   -1.4372    3.8425 C.ar      1 <0>        -0.1106 
      26 C19       11.1447   -1.5246    3.4580 C.ar      1 <0>        -0.0959 
      27 C20       11.5753   -2.5698    2.6361 C.ar      1 <0>        -0.1208 
      28 C21       10.6609   -3.5314    2.1900 C.ar      1 <0>        -0.0919 
      29 C22        9.3188   -3.4498    2.5802 C.ar      1 <0>        -0.0639 
      30 Cl1        8.1783   -4.6406    2.0247 Cl        1 <0>        -0.0632 
      31 H1         3.0083    8.4183    8.4937 H         1 <0>         0.0596 
      32 H2         3.0098    8.8048   10.2283 H         1 <0>         0.0563 
      33 H3         4.3189    7.8226    9.5356 H         1 <0>         0.0575 
      34 H4         2.6914    6.4159   10.7667 H         1 <0>         0.0784 
      35 H5         0.3925    6.1887    9.8956 H         1 <0>         0.0596 
      36 H6         0.7244    7.4412    8.6794 H         1 <0>         0.0574 
      37 H7         0.7096    7.8612   10.4061 H         1 <0>         0.0563 
      38 H8         3.5963    4.3763   10.2503 H         1 <0>         0.1285 
      39 H9         4.0394    2.5381    8.6029 H         1 <0>         0.1293 
      40 H10        2.5765    4.9567    5.4192 H         1 <0>         0.1227 
      41 H11        2.2218    6.8375    6.9904 H         1 <0>         0.1262 
      42 H12        1.8292    0.8770    6.7428 H         1 <0>         0.1329 
      43 H13        1.2252    1.8708    5.3990 H         1 <0>         0.1329 
      44 H14        3.6930   -1.6638    3.3931 H         1 <0>         0.1063 
      45 H15        2.1917   -2.4239    3.9645 H         1 <0>         0.1054 
      46 H16        6.1353   -4.7519    5.2946 H         1 <0>         0.0686 
      47 H17        6.9168   -3.5615    6.3579 H         1 <0>         0.0794 
      48 H18        5.4120   -4.3568    6.8691 H         1 <0>         0.0778 
      49 H19        5.1825   -0.9603    4.5487 H         1 <0>         0.1198 
      50 H20        5.6711   -1.0347    6.2558 H         1 <0>         0.1233 
      51 H21        6.8220   -2.8083    3.2672 H         1 <0>         0.4142 
      52 H22        9.4746   -0.6269    4.4774 H         1 <0>         0.1473 
      53 H23       11.8487   -0.7804    3.8005 H         1 <0>         0.1337 
      54 H24       12.6125   -2.6389    2.3430 H         1 <0>         0.1349 
      55 H25       10.9908   -4.3361    1.5496 H         1 <0>         0.1385 
@<TRIPOS>BOND
       1        1        2 1        
       2        1       31 1        
       3        1       32 1        
       4        1       33 1        
       5        2        3 1        
       6        2        4 1        
       7        2       34 1        
       8        3       35 1        
       9        3       36 1        
      10        3       37 1        
      11        4        9 ar       
      12        4        5 ar       
      13        5        6 ar       
      14        5       38 1        
      15        6        7 ar       
      16        6       39 1        
      17        7        8 ar       
      18        7       10 1        
      19        8        9 ar       
      20        8       40 1        
      21        9       41 1        
      22       10       11 1        
      23       11       12 1        
      24       11       42 1        
      25       11       43 1        
      26       12       13 2        
      27       12       14 1        
      28       14       15 1        
      29       15       16 1        
      30       15       44 1        
      31       15       45 1        
      32       16       17 2        
      33       16       18 am       
      34       18       19 1        
      35       18       20 1        
      36       19       46 1        
      37       19       47 1        
      38       19       48 1        
      39       20       21 1        
      40       20       49 1        
      41       20       50 1        
      42       21       22 2        
      43       21       23 am       
      44       23       24 1        
      45       23       51 1        
      46       24       29 ar       
      47       24       25 ar       
      48       25       26 ar       
      49       25       52 1        
      50       26       27 ar       
      51       26       53 1        
      52       27       28 ar       
      53       27       54 1        
      54       28       29 ar       
      55       28       55 1        
      56       29       30 1        

