#        1GCZ_R01_S0001_C0000_L00005_S0001_C0022_G0010_E0001.mol2
#        Tue Jun  6 09:55:47 2017
#        Descriptor:     11    24     6     9     6    15
#        Energy - RMSD - RMSD MassCentre:     -54.6776    999.9999    999.9999
#        Receptor:       1  Surface Point:     1  Conformer:     0
#        Ligand:         5  Surface Point:     1  Conformer:    22
#        BUDE Formal Charge: 0
#        ATOM Count: 55
#        Heavy ATOM Count: 30
@<TRIPOS>MOLECULE
ZINC61464195_1GCZ_R01_S0001_C0000_L00005_S0001_C0022_G0010_E0001
 55 56 0 0 0
SMALL
USER_CHARGES
@<TRIPOS>ATOM
       1 C1         6.3137    0.1718    4.6749 C.3       1 <0>        -0.1456 
       2 C2         5.4208    0.4191    5.8874 C.3       1 <0>        -0.0579 
       3 C3         5.7528    1.7786    6.4957 C.3       1 <0>        -0.1456 
       4 C4         3.9735    0.4010    5.4576 C.ar      1 <0>        -0.0771 
       5 C5         3.1245   -0.5589    6.0211 C.ar      1 <0>        -0.0943 
       6 C6         1.7571   -0.5410    5.7212 C.ar      1 <0>        -0.0923 
       7 C7         1.2298    0.4342    4.8665 C.ar      1 <0>        -0.1041 
       8 C8         2.0789    1.3655    4.2572 C.ar      1 <0>        -0.1315 
       9 C9         3.4502    1.3199    4.5354 C.ar      1 <0>        -0.0969 
      10 S1        -0.5119    0.4796    4.5544 S.3       1 <0>        -0.0341 
      11 C10       -1.3196    1.5517    5.7836 C.3       1 <0>        -0.1267 
      12 C11       -1.0851    0.9948    7.1674 C.2       1 <0>         0.4864 
      13 O1        -0.2494    1.4766    7.8726 O.2       1 <0>        -0.4815 
      14 O2        -1.8199   -0.0484    7.6082 O.3       1 <0>        -0.3231 
      15 C12       -1.5621   -0.5415    8.9254 C.3       1 <0>         0.0526 
      16 C13       -2.4856   -1.6998    9.2180 C.2       1 <0>         0.5250 
      17 O3        -3.2512   -1.6478   10.1792 O.2       1 <0>        -0.5082 
      18 N1        -2.4716   -2.7762    8.4370 N.am      1 <0>        -0.5981 
      19 C14       -3.3713   -3.9029    8.7232 C.3       1 <0>         0.0731 
      20 C15       -1.5568   -2.8384    7.2881 C.3       1 <0>         0.1010 
      21 C16       -0.9286   -4.2098    7.2196 C.2       1 <0>         0.4997 
      22 O4        -0.9626   -4.8496    6.1697 O.2       1 <0>        -0.5061 
      23 N2        -0.3391   -4.7253    8.2947 N.am      1 <0>        -0.6702 
      24 C17        0.2494   -6.0104    8.2306 C.ar      1 <0>         0.1553 
      25 C18       -0.1374   -6.9084    7.2287 C.ar      1 <0>        -0.1106 
      26 C19        0.4528   -8.1763    7.1647 C.ar      1 <0>        -0.0959 
      27 C20        1.4198   -8.5509    8.1017 C.ar      1 <0>        -0.1208 
      28 C21        1.7976   -7.6586    9.1123 C.ar      1 <0>        -0.0919 
      29 C22        1.2141   -6.3876    9.1726 C.ar      1 <0>        -0.0639 
      30 Cl1        1.6779   -5.2771   10.4293 Cl        1 <0>        -0.0632 
      31 H1         6.1542    0.9591    3.9412 H         1 <0>         0.0596 
      32 H2         7.3560    0.1715    4.9868 H         1 <0>         0.0563 
      33 H3         6.0663   -0.7916    4.2336 H         1 <0>         0.0575 
      34 H4         5.5885   -0.3608    6.6271 H         1 <0>         0.0784 
      35 H5         5.1243    1.9483    7.3675 H         1 <0>         0.0596 
      36 H6         5.5713    2.5587    5.7595 H         1 <0>         0.0574 
      37 H7         6.7992    1.7962    6.7933 H         1 <0>         0.0563 
      38 H8         3.5046   -1.3083    6.6996 H         1 <0>         0.1285 
      39 H9         1.0618   -1.2568    6.1343 H         1 <0>         0.1293 
      40 H10        1.6605    2.1002    3.5853 H         1 <0>         0.1227 
      41 H11        4.0955    2.0227    4.0294 H         1 <0>         0.1262 
      42 H12       -0.9019    2.5545    5.7214 H         1 <0>         0.1329 
      43 H13       -2.3887    1.5904    5.5854 H         1 <0>         0.1329 
      44 H14       -1.7348    0.2512    9.6504 H         1 <0>         0.1063 
      45 H15       -0.5291   -0.8763    8.9924 H         1 <0>         0.1054 
      46 H16       -4.4040   -3.5644    8.6697 H         1 <0>         0.0686 
      47 H17       -3.2089   -4.6909    7.9909 H         1 <0>         0.0794 
      48 H18       -3.1659   -4.2859    9.7207 H         1 <0>         0.0778 
      49 H19       -2.1121   -2.6470    6.3724 H         1 <0>         0.1198 
      50 H20       -0.7780   -2.0876    7.4045 H         1 <0>         0.1233 
      51 H21       -0.3118   -4.1989    9.1564 H         1 <0>         0.4142 
      52 H22       -0.8844   -6.6250    6.5018 H         1 <0>         0.1473 
      53 H23        0.1583   -8.8649    6.3864 H         1 <0>         0.1337 
      54 H24        1.8776   -9.5277    8.0496 H         1 <0>         0.1349 
      55 H25        2.5400   -7.9490    9.8409 H         1 <0>         0.1385 
@<TRIPOS>BOND
       1        1        2 1        
       2        1       31 1        
       3        1       32 1        
       4        1       33 1        
       5        2        3 1        
       6        2        4 1        
       7        2       34 1        
       8        3       35 1        
       9        3       36 1        
      10        3       37 1        
      11        4        9 ar       
      12        4        5 ar       
      13        5        6 ar       
      14        5       38 1        
      15        6        7 ar       
      16        6       39 1        
      17        7        8 ar       
      18        7       10 1        
      19        8        9 ar       
      20        8       40 1        
      21        9       41 1        
      22       10       11 1        
      23       11       12 1        
      24       11       42 1        
      25       11       43 1        
      26       12       13 2        
      27       12       14 1        
      28       14       15 1        
      29       15       16 1        
      30       15       44 1        
      31       15       45 1        
      32       16       17 2        
      33       16       18 am       
      34       18       19 1        
      35       18       20 1        
      36       19       46 1        
      37       19       47 1        
      38       19       48 1        
      39       20       21 1        
      40       20       49 1        
      41       20       50 1        
      42       21       22 2        
      43       21       23 am       
      44       23       24 1        
      45       23       51 1        
      46       24       29 ar       
      47       24       25 ar       
      48       25       26 ar       
      49       25       52 1        
      50       26       27 ar       
      51       26       53 1        
      52       27       28 ar       
      53       27       54 1        
      54       28       29 ar       
      55       28       55 1        
      56       29       30 1        

