#        1GCZ_R01_S0001_C0000_L00005_S0001_C0022_G0010_E0001.mol2
#        Tue Jun  6 14:06:18 2017
#        Descriptor:     19    29     4    12     7    14
#        Energy - RMSD - RMSD MassCentre:     -54.6848    999.9999    999.9999
#        Receptor:       1  Surface Point:     1  Conformer:     0
#        Ligand:         5  Surface Point:     1  Conformer:    22
#        BUDE Formal Charge: 0
#        ATOM Count: 55
#        Heavy ATOM Count: 30
@<TRIPOS>MOLECULE
ZINC61464195_1GCZ_R01_S0001_C0000_L00005_S0001_C0022_G0010_E0001
 55 56 0 0 0
SMALL
USER_CHARGES
@<TRIPOS>ATOM
       1 C1         5.6932   -6.9228    5.3580 C.3       1 <0>        -0.1456 
       2 C2         5.3722   -5.9508    6.4897 C.3       1 <0>        -0.0579 
       3 C3         5.9437   -6.4869    7.7992 C.3       1 <0>        -0.1456 
       4 C4         5.9873   -4.6057    6.1865 C.ar      1 <0>        -0.0771 
       5 C5         5.1386   -3.4998    6.0597 C.ar      1 <0>        -0.0943 
       6 C6         5.6817   -2.2223    5.8782 C.ar      1 <0>        -0.0923 
       7 C7         7.0689   -2.0404    5.8288 C.ar      1 <0>        -0.1041 
       8 C8         7.9239   -3.1465    5.9020 C.ar      1 <0>        -0.1315 
       9 C9         7.3719   -4.4245    6.0492 C.ar      1 <0>        -0.0969 
      10 S1         7.7355   -0.4088    5.6664 S.3       1 <0>        -0.0341 
      11 C10        8.0044    0.3029    7.3198 C.3       1 <0>        -0.1267 
      12 C11        6.6865    0.3838    8.0524 C.2       1 <0>         0.4864 
      13 O1         6.4097   -0.4344    8.8781 O.2       1 <0>        -0.4815 
      14 O2         5.8203    1.3811    7.7742 O.3       1 <0>        -0.3231 
      15 C12        4.5848    1.4166    8.4934 C.3       1 <0>         0.0526 
      16 C13        3.7696    2.6015    8.0334 C.2       1 <0>         0.5250 
      17 O3         3.4212    3.4594    8.8432 O.2       1 <0>        -0.5082 
      18 N1         3.4279    2.7182    6.7535 N.am      1 <0>        -0.5981 
      19 C14        2.6343    3.8723    6.3074 C.3       1 <0>         0.0731 
      20 C15        3.8443    1.6931    5.7857 C.3       1 <0>         0.1010 
      21 C16        2.6923    1.3763    4.8624 C.2       1 <0>         0.4997 
      22 O4         2.8548    1.4078    3.6436 O.2       1 <0>        -0.5061 
      23 N2         1.5023    1.0635    5.3675 N.am      1 <0>        -0.6702 
      24 C17        0.4227    0.7667    4.5023 C.ar      1 <0>         0.1553 
      25 C18        0.4514    1.2021    3.1722 C.ar      1 <0>        -0.1106 
      26 C19       -0.6157    0.9000    2.3177 C.ar      1 <0>        -0.0959 
      27 C20       -1.7119    0.1730    2.7902 C.ar      1 <0>        -0.1208 
      28 C21       -1.7478   -0.2513    4.1239 C.ar      1 <0>        -0.0919 
      29 C22       -0.6779    0.0433    4.9773 C.ar      1 <0>        -0.0639 
      30 Cl1       -0.7204   -0.4787    6.6365 Cl        1 <0>        -0.0632 
      31 H1         6.7717   -7.0391    5.2757 H         1 <0>         0.0596 
      32 H2         5.2387   -7.8882    5.5701 H         1 <0>         0.0563 
      33 H3         5.2974   -6.5326    4.4226 H         1 <0>         0.0575 
      34 H4         4.2935   -5.8432    6.5812 H         1 <0>         0.0784 
      35 H5         5.7034   -5.7994    8.6074 H         1 <0>         0.0596 
      36 H6         7.0240   -6.5808    7.7111 H         1 <0>         0.0574 
      37 H7         5.5104   -7.4622    8.0109 H         1 <0>         0.0563 
      38 H8         4.0659   -3.6123    6.1154 H         1 <0>         0.1285 
      39 H9         5.0689   -1.3384    5.7800 H         1 <0>         0.1293 
      40 H10        8.9913   -2.9927    5.8435 H         1 <0>         0.1227 
      41 H11        8.0440   -5.2697    6.0681 H         1 <0>         0.1262 
      42 H12        8.6916   -0.3282    7.8797 H         1 <0>         0.1329 
      43 H13        8.4258    1.3012    7.2215 H         1 <0>         0.1329 
      44 H14        4.7870    1.5078    9.5585 H         1 <0>         0.1063 
      45 H15        4.0289    0.5002    8.3063 H         1 <0>         0.1054 
      46 H16        3.1848    4.7893    6.5074 H         1 <0>         0.0686 
      47 H17        2.4427    3.7890    5.2397 H         1 <0>         0.0794 
      48 H18        1.6890    3.8915    6.8458 H         1 <0>         0.0778 
      49 H19        4.6848    2.0650    5.2035 H         1 <0>         0.1198 
      50 H20        4.1414    0.7920    6.3181 H         1 <0>         0.1233 
      51 H21        1.3700    1.0379    6.3686 H         1 <0>         0.4142 
      52 H22        1.2956    1.7646    2.8011 H         1 <0>         0.1473 
      53 H23       -0.5882    1.2304    1.2898 H         1 <0>         0.1337 
      54 H24       -2.5330   -0.0631    2.1297 H         1 <0>         0.1349 
      55 H25       -2.5971   -0.8076    4.4922 H         1 <0>         0.1385 
@<TRIPOS>BOND
       1        1        2 1        
       2        1       31 1        
       3        1       32 1        
       4        1       33 1        
       5        2        3 1        
       6        2        4 1        
       7        2       34 1        
       8        3       35 1        
       9        3       36 1        
      10        3       37 1        
      11        4        9 ar       
      12        4        5 ar       
      13        5        6 ar       
      14        5       38 1        
      15        6        7 ar       
      16        6       39 1        
      17        7        8 ar       
      18        7       10 1        
      19        8        9 ar       
      20        8       40 1        
      21        9       41 1        
      22       10       11 1        
      23       11       12 1        
      24       11       42 1        
      25       11       43 1        
      26       12       13 2        
      27       12       14 1        
      28       14       15 1        
      29       15       16 1        
      30       15       44 1        
      31       15       45 1        
      32       16       17 2        
      33       16       18 am       
      34       18       19 1        
      35       18       20 1        
      36       19       46 1        
      37       19       47 1        
      38       19       48 1        
      39       20       21 1        
      40       20       49 1        
      41       20       50 1        
      42       21       22 2        
      43       21       23 am       
      44       23       24 1        
      45       23       51 1        
      46       24       29 ar       
      47       24       25 ar       
      48       25       26 ar       
      49       25       52 1        
      50       26       27 ar       
      51       26       53 1        
      52       27       28 ar       
      53       27       54 1        
      54       28       29 ar       
      55       28       55 1        
      56       29       30 1        

