#        1GCZ_R01_S0001_C0000_L00005_S0001_C0023_G0010_E0001.mol2
#        Tue Jun  6 14:06:20 2017
#        Descriptor:     22    16    32    10     9    15
#        Energy - RMSD - RMSD MassCentre:     -65.0102    999.9999    999.9999
#        Receptor:       1  Surface Point:     1  Conformer:     0
#        Ligand:         5  Surface Point:     1  Conformer:    23
#        BUDE Formal Charge: 0
#        ATOM Count: 55
#        Heavy ATOM Count: 30
@<TRIPOS>MOLECULE
ZINC61464195_1GCZ_R01_S0001_C0000_L00005_S0001_C0023_G0010_E0001
 55 56 0 0 0
SMALL
USER_CHARGES
@<TRIPOS>ATOM
       1 C1         5.7924    2.1255    6.7746 C.3       1 <0>        -0.1456 
       2 C2         4.7547    1.5220    5.8324 C.3       1 <0>        -0.0579 
       3 C3         5.3980    1.2441    4.4768 C.3       1 <0>        -0.1456 
       4 C4         4.2365    0.2300    6.4170 C.ar      1 <0>        -0.0771 
       5 C5         4.2181    0.0905    7.8098 C.ar      1 <0>        -0.0943 
       6 C6         3.6526   -1.0522    8.3878 C.ar      1 <0>        -0.0923 
       7 C7         3.0984   -2.0553    7.5836 C.ar      1 <0>        -0.1041 
       8 C8         3.1592   -1.9490    6.1891 C.ar      1 <0>        -0.1315 
       9 C9         3.7571   -0.8191    5.6183 C.ar      1 <0>        -0.0969 
      10 S1         2.3281   -3.4595    8.3370 S.3       1 <0>        -0.0341 
      11 C10        0.5609   -3.1129    8.5991 C.3       1 <0>        -0.1267 
      12 C11       -0.1018   -2.8469    7.2686 C.2       1 <0>         0.4864 
      13 O1        -0.7487   -3.7018    6.7408 O.2       1 <0>        -0.4815 
      14 O2         0.0369   -1.6425    6.6748 O.3       1 <0>        -0.3231 
      15 C12       -0.6088   -1.4373    5.4154 C.3       1 <0>         0.0526 
      16 C13       -0.3287   -0.0353    4.9298 C.2       1 <0>         0.5250 
      17 O3         0.2256    0.1404    3.8458 O.2       1 <0>        -0.5082 
      18 N1        -0.6807    1.0098    5.6732 N.am      1 <0>        -0.5981 
      19 C14       -1.3432    0.7998    6.9685 C.3       1 <0>         0.0731 
      20 C15       -0.4072    2.3740    5.1989 C.3       1 <0>         0.1010 
      21 C16        0.1162    3.2084    6.3435 C.2       1 <0>         0.4997 
      22 O4        -0.4035    4.2928    6.6015 O.2       1 <0>        -0.5061 
      23 N2         1.1391    2.7700    7.0720 N.am      1 <0>        -0.6702 
      24 C17        1.6295    3.5519    8.1446 C.ar      1 <0>         0.1553 
      25 C18        1.9533    2.9438    9.3632 C.ar      1 <0>        -0.1106 
      26 C19        2.4450    3.7203   10.4194 C.ar      1 <0>        -0.0959 
      27 C20        2.6057    5.0999   10.2638 C.ar      1 <0>        -0.1208 
      28 C21        2.2693    5.7110    9.0499 C.ar      1 <0>        -0.0919 
      29 C22        1.7850    4.9346    7.9904 C.ar      1 <0>        -0.0639 
      30 Cl1        1.3621    5.6908    6.4814 Cl        1 <0>        -0.0632 
      31 H1         6.6233    1.4326    6.8896 H         1 <0>         0.0596 
      32 H2         6.1561    3.0633    6.3598 H         1 <0>         0.0563 
      33 H3         5.3363    2.3103    7.7450 H         1 <0>         0.0575 
      34 H4         3.9291    2.2194    5.7066 H         1 <0>         0.0784 
      35 H5         4.6541    0.8255    3.8021 H         1 <0>         0.0596 
      36 H6         6.2144    0.5359    4.6019 H         1 <0>         0.0574 
      37 H7         5.7832    2.1731    4.0615 H         1 <0>         0.0563 
      38 H8         4.6207    0.8604    8.4513 H         1 <0>         0.1285 
      39 H9         3.6105   -1.2034    9.4564 H         1 <0>         0.1293 
      40 H10        2.7445   -2.7396    5.5813 H         1 <0>         0.1227 
      41 H11        3.8274   -0.7702    4.5417 H         1 <0>         0.1262 
      42 H12        0.0888   -3.9706    9.0736 H         1 <0>         0.1329 
      43 H13        0.4530   -2.2391    9.2383 H         1 <0>         0.1329 
      44 H14       -1.6822   -1.5726    5.5313 H         1 <0>         0.1063 
      45 H15       -0.2284   -2.1542    4.6909 H         1 <0>         0.1054 
      46 H16       -0.6852    0.2328    7.6238 H         1 <0>         0.0686 
      47 H17       -1.5652    1.7635    7.4219 H         1 <0>         0.0794 
      48 H18       -2.2684    0.2479    6.8167 H         1 <0>         0.0778 
      49 H19        0.3362    2.3392    4.4051 H         1 <0>         0.1198 
      50 H20       -1.3255    2.8158    4.8176 H         1 <0>         0.1233 
      51 H21        1.5650    1.8793    6.8593 H         1 <0>         0.4142 
      52 H22        1.8311    1.8782    9.4899 H         1 <0>         0.1473 
      53 H23        2.7014    3.2481   11.3564 H         1 <0>         0.1337 
      54 H24        2.9886    5.6978   11.0775 H         1 <0>         0.1349 
      55 H25        2.3867    6.7779    8.9302 H         1 <0>         0.1385 
@<TRIPOS>BOND
       1        1        2 1        
       2        1       31 1        
       3        1       32 1        
       4        1       33 1        
       5        2        3 1        
       6        2        4 1        
       7        2       34 1        
       8        3       35 1        
       9        3       36 1        
      10        3       37 1        
      11        4        9 ar       
      12        4        5 ar       
      13        5        6 ar       
      14        5       38 1        
      15        6        7 ar       
      16        6       39 1        
      17        7        8 ar       
      18        7       10 1        
      19        8        9 ar       
      20        8       40 1        
      21        9       41 1        
      22       10       11 1        
      23       11       12 1        
      24       11       42 1        
      25       11       43 1        
      26       12       13 2        
      27       12       14 1        
      28       14       15 1        
      29       15       16 1        
      30       15       44 1        
      31       15       45 1        
      32       16       17 2        
      33       16       18 am       
      34       18       19 1        
      35       18       20 1        
      36       19       46 1        
      37       19       47 1        
      38       19       48 1        
      39       20       21 1        
      40       20       49 1        
      41       20       50 1        
      42       21       22 2        
      43       21       23 am       
      44       23       24 1        
      45       23       51 1        
      46       24       29 ar       
      47       24       25 ar       
      48       25       26 ar       
      49       25       52 1        
      50       26       27 ar       
      51       26       53 1        
      52       27       28 ar       
      53       27       54 1        
      54       28       29 ar       
      55       28       55 1        
      56       29       30 1        

