#        1GCZ_R01_S0001_C0000_L00005_S0001_C0024_G0010_E0001.mol2
#        Tue Jun  6 09:55:49 2017
#        Descriptor:     14    21    20    11     7    13
#        Energy - RMSD - RMSD MassCentre:     -60.6093    999.9999    999.9999
#        Receptor:       1  Surface Point:     1  Conformer:     0
#        Ligand:         5  Surface Point:     1  Conformer:    24
#        BUDE Formal Charge: 0
#        ATOM Count: 55
#        Heavy ATOM Count: 30
@<TRIPOS>MOLECULE
ZINC61464195_1GCZ_R01_S0001_C0000_L00005_S0001_C0024_G0010_E0001
 55 56 0 0 0
SMALL
USER_CHARGES
@<TRIPOS>ATOM
       1 C1        -1.8601    1.4557    1.6431 C.3       1 <0>        -0.1456 
       2 C2        -0.7970    0.5171    2.2068 C.3       1 <0>        -0.0579 
       3 C3         0.5846    0.9834    1.7569 C.3       1 <0>        -0.1456 
       4 C4        -0.8649    0.5293    3.7151 C.ar      1 <0>        -0.0771 
       5 C5        -1.1442   -0.6717    4.3778 C.ar      1 <0>        -0.0943 
       6 C6        -1.1161   -0.7180    5.7767 C.ar      1 <0>        -0.0923 
       7 C7        -0.8043    0.4270    6.5195 C.ar      1 <0>        -0.1041 
       8 C8        -0.5752    1.6445    5.8675 C.ar      1 <0>        -0.1315 
       9 C9        -0.6387    1.6902    4.4697 C.ar      1 <0>        -0.0969 
      10 S1        -0.7081    0.3300    8.2842 S.3       1 <0>        -0.0341 
      11 C10        0.9943   -0.0853    8.7760 C.3       1 <0>        -0.1267 
      12 C11        1.3736   -1.4248    8.1912 C.2       1 <0>         0.4864 
      13 O1         1.3532   -2.4040    8.8759 O.2       1 <0>        -0.4815 
      14 O2         1.7360   -1.5163    6.8940 O.3       1 <0>        -0.3231 
      15 C12        2.0867   -2.8057    6.3850 C.3       1 <0>         0.0526 
      16 C13        3.3077   -3.3175    7.1110 C.2       1 <0>         0.5250 
      17 O3         3.2567   -4.3825    7.7243 O.2       1 <0>        -0.5082 
      18 N1         4.4383   -2.6174    7.0880 N.am      1 <0>        -0.5981 
      19 C14        5.6261   -3.1170    7.7953 C.3       1 <0>         0.0731 
      20 C15        4.4993   -1.3447    6.3549 C.3       1 <0>         0.1010 
      21 C16        5.7974   -1.2687    5.5872 C.2       1 <0>         0.4997 
      22 O4         6.5229   -0.2823    5.7029 O.2       1 <0>        -0.5061 
      23 N2         6.1554   -2.2685    4.7864 N.am      1 <0>        -0.6702 
      24 C17        7.3718   -2.1973    4.0671 C.ar      1 <0>         0.1553 
      25 C18        7.9809   -0.9570    3.8428 C.ar      1 <0>        -0.1106 
      26 C19        9.1881   -0.8921    3.1367 C.ar      1 <0>        -0.0959 
      27 C20        9.7819   -2.0593    2.6485 C.ar      1 <0>        -0.1208 
      28 C21        9.1667   -3.2988    2.8605 C.ar      1 <0>        -0.0919 
      29 C22        7.9636   -3.3661    3.5733 C.ar      1 <0>        -0.0639 
      30 Cl1        7.1936   -4.9042    3.8355 Cl        1 <0>        -0.0632 
      31 H1        -1.6734    2.4678    1.9959 H         1 <0>         0.0596 
      32 H2        -1.8200    1.4368    0.5559 H         1 <0>         0.0563 
      33 H3        -2.8435    1.1304    1.9762 H         1 <0>         0.0575 
      34 H4        -0.9753   -0.4930    1.8445 H         1 <0>         0.0784 
      35 H5         1.3406    0.3064    2.1490 H         1 <0>         0.0596 
      36 H6         0.7673    1.9884    2.1316 H         1 <0>         0.0574 
      37 H7         0.6291    0.9875    0.6698 H         1 <0>         0.0563 
      38 H8        -1.3669   -1.5730    3.8260 H         1 <0>         0.1285 
      39 H9        -1.3197   -1.6210    6.3329 H         1 <0>         0.1293 
      40 H10       -0.3543    2.5237    6.4546 H         1 <0>         0.1227 
      41 H11       -0.4948    2.6446    3.9852 H         1 <0>         0.1262 
      42 H12        1.6759    0.6776    8.4055 H         1 <0>         0.1329 
      43 H13        1.0576   -0.1330    9.8611 H         1 <0>         0.1329 
      44 H14        2.3033   -2.7297    5.3213 H         1 <0>         0.1063 
      45 H15        1.2588   -3.4947    6.5388 H         1 <0>         0.1054 
      46 H16        5.9159   -4.0803    7.3806 H         1 <0>         0.0686 
      47 H17        6.4433   -2.4090    7.6753 H         1 <0>         0.0794 
      48 H18        5.3964   -3.2311    8.8527 H         1 <0>         0.0778 
      49 H19        3.6630   -1.2860    5.6613 H         1 <0>         0.1198 
      50 H20        4.4453   -0.5179    7.0601 H         1 <0>         0.1233 
      51 H21        5.5588   -3.0781    4.6923 H         1 <0>         0.4142 
      52 H22        7.5268   -0.0514    4.2171 H         1 <0>         0.1473 
      53 H23        9.6604    0.0652    2.9712 H         1 <0>         0.1337 
      54 H24       10.7152   -2.0090    2.1073 H         1 <0>         0.1349 
      55 H25        9.6210   -4.2011    2.4784 H         1 <0>         0.1385 
@<TRIPOS>BOND
       1        1        2 1        
       2        1       31 1        
       3        1       32 1        
       4        1       33 1        
       5        2        3 1        
       6        2        4 1        
       7        2       34 1        
       8        3       35 1        
       9        3       36 1        
      10        3       37 1        
      11        4        9 ar       
      12        4        5 ar       
      13        5        6 ar       
      14        5       38 1        
      15        6        7 ar       
      16        6       39 1        
      17        7        8 ar       
      18        7       10 1        
      19        8        9 ar       
      20        8       40 1        
      21        9       41 1        
      22       10       11 1        
      23       11       12 1        
      24       11       42 1        
      25       11       43 1        
      26       12       13 2        
      27       12       14 1        
      28       14       15 1        
      29       15       16 1        
      30       15       44 1        
      31       15       45 1        
      32       16       17 2        
      33       16       18 am       
      34       18       19 1        
      35       18       20 1        
      36       19       46 1        
      37       19       47 1        
      38       19       48 1        
      39       20       21 1        
      40       20       49 1        
      41       20       50 1        
      42       21       22 2        
      43       21       23 am       
      44       23       24 1        
      45       23       51 1        
      46       24       29 ar       
      47       24       25 ar       
      48       25       26 ar       
      49       25       52 1        
      50       26       27 ar       
      51       26       53 1        
      52       27       28 ar       
      53       27       54 1        
      54       28       29 ar       
      55       28       55 1        
      56       29       30 1        

