#        1GCZ_R01_S0001_C0000_L00005_S0001_C0024_G0010_E0001.mol2
#        Tue Jun  6 14:06:22 2017
#        Descriptor:      1     1     4    12     7    14
#        Energy - RMSD - RMSD MassCentre:     -56.8677    999.9999    999.9999
#        Receptor:       1  Surface Point:     1  Conformer:     0
#        Ligand:         5  Surface Point:     1  Conformer:    24
#        BUDE Formal Charge: 0
#        ATOM Count: 55
#        Heavy ATOM Count: 30
@<TRIPOS>MOLECULE
ZINC61464195_1GCZ_R01_S0001_C0000_L00005_S0001_C0024_G0010_E0001
 55 56 0 0 0
SMALL
USER_CHARGES
@<TRIPOS>ATOM
       1 C1        -1.1548    2.7764    5.7059 C.3       1 <0>        -0.1456 
       2 C2         0.0537    1.9181    5.3428 C.3       1 <0>        -0.0579 
       3 C3         1.3315    2.6223    5.7900 C.3       1 <0>        -0.1456 
       4 C4        -0.0527    0.5816    6.0371 C.ar      1 <0>        -0.0771 
       5 C5        -0.1139   -0.5739    5.2491 C.ar      1 <0>        -0.0943 
       6 C6        -0.1122   -1.8338    5.8595 C.ar      1 <0>        -0.0923 
       7 C7        -0.0433   -1.9483    7.2530 C.ar      1 <0>        -0.1041 
       8 C8        -0.0349   -0.7982    8.0512 C.ar      1 <0>        -0.1315 
       9 C9        -0.0712    0.4582    7.4345 C.ar      1 <0>        -0.0969 
      10 S1         0.0258   -3.5513    8.0004 S.3       1 <0>        -0.0341 
      11 C10        1.7634   -4.0640    8.1742 C.3       1 <0>        -0.1267 
      12 C11        2.4059   -4.1326    6.8095 C.2       1 <0>         0.4864 
      13 O1         2.5559   -5.1889    6.2712 O.2       1 <0>        -0.4815 
      14 O2         2.8112   -2.9999    6.1970 O.3       1 <0>        -0.3231 
      15 C12        3.4143   -3.1147    4.9055 C.3       1 <0>         0.0526 
      16 C13        4.6922   -3.9113    5.0167 C.2       1 <0>         0.5250 
      17 O3         4.8303   -4.9456    4.3653 O.2       1 <0>        -0.5082 
      18 N1         5.6684   -3.4955    5.8184 N.am      1 <0>        -0.5981 
      19 C14        6.9118   -4.2722    5.9254 C.3       1 <0>         0.0731 
      20 C15        5.5035   -2.2594    6.5967 C.3       1 <0>         0.1010 
      21 C16        6.7817   -1.4574    6.5431 C.2       1 <0>         0.4997 
      22 O4         7.3025   -1.0607    7.5843 O.2       1 <0>        -0.5061 
      23 N2         7.3439   -1.1806    5.3698 N.am      1 <0>        -0.6702 
      24 C17        8.5418   -0.4291    5.3196 C.ar      1 <0>         0.1553 
      25 C18        8.9082    0.3774    6.4035 C.ar      1 <0>        -0.1106 
      26 C19       10.0979    1.1137    6.3523 C.ar      1 <0>        -0.0959 
      27 C20       10.9156    1.0524    5.2206 C.ar      1 <0>        -0.1208 
      28 C21       10.5434    0.2568    4.1306 C.ar      1 <0>        -0.0919 
      29 C22        9.3580   -0.4863    4.1836 C.ar      1 <0>        -0.0639 
      30 Cl1        8.8896   -1.4733    2.8294 Cl        1 <0>        -0.0632 
      31 H1        -1.1736    2.9387    6.7815 H         1 <0>         0.0596 
      32 H2        -1.0849    3.7346    5.1951 H         1 <0>         0.0563 
      33 H3        -2.0659    2.2669    5.3993 H         1 <0>         0.0575 
      34 H4         0.0806    1.7657    4.2660 H         1 <0>         0.0784 
      35 H5         2.1929    2.0153    5.5194 H         1 <0>         0.0596 
      36 H6         1.3096    2.7616    6.8688 H         1 <0>         0.0574 
      37 H7         1.4014    3.5912    5.2999 H         1 <0>         0.0563 
      38 H8        -0.1466   -0.5114    4.1715 H         1 <0>         0.1285 
      39 H9        -0.1533   -2.7536    5.2949 H         1 <0>         0.1293 
      40 H10       -0.0005   -0.9021    9.1256 H         1 <0>         0.1227 
      41 H11       -0.1002    1.3339    8.0659 H         1 <0>         0.1262 
      42 H12        2.2958   -3.3412    8.7891 H         1 <0>         0.1329 
      43 H13        1.8077   -5.0440    8.6449 H         1 <0>         0.1329 
      44 H14        3.6387   -2.1222    4.5199 H         1 <0>         0.1063 
      45 H15        2.7296   -3.6212    4.2284 H         1 <0>         0.1054 
      46 H16        7.3905   -4.3256    4.9498 H         1 <0>         0.0686 
      47 H17        7.5816   -3.7876    6.6328 H         1 <0>         0.0794 
      48 H18        6.6820   -5.2774    6.2727 H         1 <0>         0.0778 
      49 H19        4.6888   -1.6731    6.1765 H         1 <0>         0.1198 
      50 H20        5.2750   -2.5104    7.6304 H         1 <0>         0.1233 
      51 H21        6.9154   -1.5070    4.5154 H         1 <0>         0.4142 
      52 H22        8.2803    0.4293    7.2808 H         1 <0>         0.1473 
      53 H23       10.3826    1.7296    7.1928 H         1 <0>         0.1337 
      54 H24       11.8353    1.6176    5.1832 H         1 <0>         0.1349 
      55 H25       11.1709    0.2133    3.2526 H         1 <0>         0.1385 
@<TRIPOS>BOND
       1        1        2 1        
       2        1       31 1        
       3        1       32 1        
       4        1       33 1        
       5        2        3 1        
       6        2        4 1        
       7        2       34 1        
       8        3       35 1        
       9        3       36 1        
      10        3       37 1        
      11        4        9 ar       
      12        4        5 ar       
      13        5        6 ar       
      14        5       38 1        
      15        6        7 ar       
      16        6       39 1        
      17        7        8 ar       
      18        7       10 1        
      19        8        9 ar       
      20        8       40 1        
      21        9       41 1        
      22       10       11 1        
      23       11       12 1        
      24       11       42 1        
      25       11       43 1        
      26       12       13 2        
      27       12       14 1        
      28       14       15 1        
      29       15       16 1        
      30       15       44 1        
      31       15       45 1        
      32       16       17 2        
      33       16       18 am       
      34       18       19 1        
      35       18       20 1        
      36       19       46 1        
      37       19       47 1        
      38       19       48 1        
      39       20       21 1        
      40       20       49 1        
      41       20       50 1        
      42       21       22 2        
      43       21       23 am       
      44       23       24 1        
      45       23       51 1        
      46       24       29 ar       
      47       24       25 ar       
      48       25       26 ar       
      49       25       52 1        
      50       26       27 ar       
      51       26       53 1        
      52       27       28 ar       
      53       27       54 1        
      54       28       29 ar       
      55       28       55 1        
      56       29       30 1        

