#        1GCZ_R01_S0001_C0000_L00005_S0001_C0025_G0010_E0001.mol2
#        Tue Jun  6 09:55:50 2017
#        Descriptor:     30    33     2     9     8    11
#        Energy - RMSD - RMSD MassCentre:     -61.2283    999.9999    999.9999
#        Receptor:       1  Surface Point:     1  Conformer:     0
#        Ligand:         5  Surface Point:     1  Conformer:    25
#        BUDE Formal Charge: 0
#        ATOM Count: 55
#        Heavy ATOM Count: 30
@<TRIPOS>MOLECULE
ZINC61464195_1GCZ_R01_S0001_C0000_L00005_S0001_C0025_G0010_E0001
 55 56 0 0 0
SMALL
USER_CHARGES
@<TRIPOS>ATOM
       1 C1        -0.5976    0.6409   -4.2444 C.3       1 <0>        -0.1456 
       2 C2         0.2496   -0.2485   -3.3389 C.3       1 <0>        -0.0579 
       3 C3         1.7288    0.0187   -3.6018 C.3       1 <0>        -0.1456 
       4 C4        -0.0673    0.0578   -1.8948 C.ar      1 <0>        -0.0771 
       5 C5        -1.3519    0.5156   -1.5787 C.ar      1 <0>        -0.0943 
       6 C6        -1.7107    0.7138   -0.2400 C.ar      1 <0>        -0.0923 
       7 C7        -0.7962    0.4516    0.7870 C.ar      1 <0>        -0.1041 
       8 C8         0.5069    0.0440    0.4780 C.ar      1 <0>        -0.1315 
       9 C9         0.8684   -0.1191   -0.8645 C.ar      1 <0>        -0.0969 
      10 S1        -1.2924    0.6442    2.4751 S.3       1 <0>        -0.0341 
      11 C10       -1.9731   -0.9280    3.0894 C.3       1 <0>        -0.1267 
      12 C11       -2.3965   -0.7637    4.5295 C.2       1 <0>         0.4864 
      13 O1        -3.5500   -0.6091    4.8002 O.2       1 <0>        -0.4815 
      14 O2        -1.4711   -0.7913    5.5119 O.3       1 <0>        -0.3231 
      15 C12       -1.9193   -0.6315    6.8604 C.3       1 <0>         0.0526 
      16 C13       -0.7344   -0.6929    7.7944 C.2       1 <0>         0.5250 
      17 O3        -0.6949   -1.5436    8.6820 O.2       1 <0>        -0.5082 
      18 N1         0.2664    0.1722    7.6581 N.am      1 <0>        -0.5981 
      19 C14        0.2193    1.1888    6.5973 C.3       1 <0>         0.0731 
      20 C15        1.4192    0.1110    8.5682 C.3       1 <0>         0.1010 
      21 C16        2.6934    0.2908    7.7780 C.2       1 <0>         0.4997 
      22 O4         3.5179    1.1348    8.1252 O.2       1 <0>        -0.5061 
      23 N2         2.9232   -0.4637    6.7071 N.am      1 <0>        -0.6702 
      24 C17        4.1172   -0.2954    5.9667 C.ar      1 <0>         0.1553 
      25 C18        4.0801   -0.3034    4.5673 C.ar      1 <0>        -0.1106 
      26 C19        5.2629   -0.1292    3.8388 C.ar      1 <0>        -0.0959 
      27 C20        6.4802    0.0441    4.5033 C.ar      1 <0>        -0.1208 
      28 C21        6.5203    0.0386    5.9028 C.ar      1 <0>        -0.0919 
      29 C22        5.3372   -0.1274    6.6325 C.ar      1 <0>        -0.0639 
      30 Cl1        5.3834   -0.1388    8.3719 Cl        1 <0>        -0.0632 
      31 H1        -0.3650    1.6851   -4.0465 H         1 <0>         0.0596 
      32 H2        -0.3789    0.4108   -5.2851 H         1 <0>         0.0563 
      33 H3        -1.6519    0.4596   -4.0461 H         1 <0>         0.0575 
      34 H4         0.0270   -1.2933   -3.5447 H         1 <0>         0.0784 
      35 H5         2.3318   -0.6248   -2.9647 H         1 <0>         0.0596 
      36 H6         1.9532    1.0605   -3.3823 H         1 <0>         0.0574 
      37 H7         1.9544   -0.1893   -4.6458 H         1 <0>         0.0563 
      38 H8        -2.0813    0.7048   -2.3523 H         1 <0>         0.1285 
      39 H9        -2.6902    1.0608    0.0543 H         1 <0>         0.1293 
      40 H10        1.2072   -0.1365    1.2802 H         1 <0>         0.1227 
      41 H11        1.8876   -0.3992   -1.0863 H         1 <0>         0.1262 
      42 H12       -2.8353   -1.2101    2.4886 H         1 <0>         0.1329 
      43 H13       -1.2135   -1.7040    3.0217 H         1 <0>         0.1329 
      44 H14       -2.6172   -1.4286    7.1081 H         1 <0>         0.1063 
      45 H15       -2.4148    0.3313    6.9670 H         1 <0>         0.1054 
      46 H16       -0.6490    1.8273    6.7463 H         1 <0>         0.0686 
      47 H17        1.1241    1.7917    6.6332 H         1 <0>         0.0794 
      48 H18        0.1476    0.6983    5.6288 H         1 <0>         0.0778 
      49 H19        1.3371    0.9027    9.3100 H         1 <0>         0.1198 
      50 H20        1.4349   -0.8551    9.0681 H         1 <0>         0.1233 
      51 H21        2.2454   -1.1566    6.4230 H         1 <0>         0.4142 
      52 H22        3.1427   -0.4372    4.0478 H         1 <0>         0.1473 
      53 H23        5.2311   -0.1281    2.7590 H         1 <0>         0.1337 
      54 H24        7.3917    0.1823    3.9409 H         1 <0>         0.1349 
      55 H25        7.4610    0.1658    6.4178 H         1 <0>         0.1385 
@<TRIPOS>BOND
       1        1        2 1        
       2        1       31 1        
       3        1       32 1        
       4        1       33 1        
       5        2        3 1        
       6        2        4 1        
       7        2       34 1        
       8        3       35 1        
       9        3       36 1        
      10        3       37 1        
      11        4        9 ar       
      12        4        5 ar       
      13        5        6 ar       
      14        5       38 1        
      15        6        7 ar       
      16        6       39 1        
      17        7        8 ar       
      18        7       10 1        
      19        8        9 ar       
      20        8       40 1        
      21        9       41 1        
      22       10       11 1        
      23       11       12 1        
      24       11       42 1        
      25       11       43 1        
      26       12       13 2        
      27       12       14 1        
      28       14       15 1        
      29       15       16 1        
      30       15       44 1        
      31       15       45 1        
      32       16       17 2        
      33       16       18 am       
      34       18       19 1        
      35       18       20 1        
      36       19       46 1        
      37       19       47 1        
      38       19       48 1        
      39       20       21 1        
      40       20       49 1        
      41       20       50 1        
      42       21       22 2        
      43       21       23 am       
      44       23       24 1        
      45       23       51 1        
      46       24       29 ar       
      47       24       25 ar       
      48       25       26 ar       
      49       25       52 1        
      50       26       27 ar       
      51       26       53 1        
      52       27       28 ar       
      53       27       54 1        
      54       28       29 ar       
      55       28       55 1        
      56       29       30 1        

