#        1GCZ_R01_S0001_C0000_L00005_S0001_C0025_G0010_E0001.mol2
#        Tue Jun  6 14:06:24 2017
#        Descriptor:     22    18    22    13     7    14
#        Energy - RMSD - RMSD MassCentre:     -56.6534    999.9999    999.9999
#        Receptor:       1  Surface Point:     1  Conformer:     0
#        Ligand:         5  Surface Point:     1  Conformer:    25
#        BUDE Formal Charge: 0
#        ATOM Count: 55
#        Heavy ATOM Count: 30
@<TRIPOS>MOLECULE
ZINC61464195_1GCZ_R01_S0001_C0000_L00005_S0001_C0025_G0010_E0001
 55 56 0 0 0
SMALL
USER_CHARGES
@<TRIPOS>ATOM
       1 C1         2.6752    5.6785    8.3319 C.3       1 <0>        -0.1456 
       2 C2         3.1812    5.0338    7.0447 C.3       1 <0>        -0.0579 
       3 C3         4.5610    5.5899    6.7046 C.3       1 <0>        -0.1456 
       4 C4         3.2749    3.5389    7.2345 C.ar      1 <0>        -0.0771 
       5 C5         2.3946    2.9265    8.1345 C.ar      1 <0>        -0.0943 
       6 C6         2.3863    1.5323    8.2608 C.ar      1 <0>        -0.0923 
       7 C7         3.2477    0.7437    7.4888 C.ar      1 <0>        -0.1041 
       8 C8         4.1675    1.3498    6.6250 C.ar      1 <0>        -0.1315 
       9 C9         4.1931    2.7462    6.5296 C.ar      1 <0>        -0.0969 
      10 S1         3.1734   -1.0203    7.6151 S.3       1 <0>        -0.0341 
      11 C10        1.9821   -1.6647    6.3993 C.3       1 <0>        -0.1267 
      12 C11        1.9187   -3.1696    6.5070 C.2       1 <0>         0.4864 
      13 O1         1.0132   -3.6903    7.0875 O.2       1 <0>        -0.4815 
      14 O2         2.8857   -3.9273    5.9474 O.3       1 <0>        -0.3231 
      15 C12        2.7831   -5.3478    6.0753 C.3       1 <0>         0.0526 
      16 C13        3.9562   -6.0006    5.3841 C.2       1 <0>         0.5250 
      17 O3         3.7634   -6.8031    4.4721 O.2       1 <0>        -0.5082 
      18 N1         5.1978   -5.7084    5.7607 N.am      1 <0>        -0.5981 
      19 C14        5.4282   -4.7492    6.8505 C.3       1 <0>         0.0731 
      20 C15        6.3387   -6.3448    5.0867 C.3       1 <0>         0.1010 
      21 C16        7.4119   -5.3132    4.8334 C.2       1 <0>         0.4997 
      22 O4         8.5684   -5.5287    5.1922 O.2       1 <0>        -0.5061 
      23 N2         7.1059   -4.1721    4.2225 N.am      1 <0>        -0.6702 
      24 C17        8.1115   -3.2054    3.9850 C.ar      1 <0>         0.1553 
      25 C18        7.8441   -1.8488    4.2038 C.ar      1 <0>        -0.1106 
      26 C19        8.8444   -0.8965    3.9745 C.ar      1 <0>        -0.0959 
      27 C20       10.1049   -1.2946    3.5204 C.ar      1 <0>        -0.1208 
      28 C21       10.3690   -2.6497    3.2883 C.ar      1 <0>        -0.0919 
      29 C22        9.3722   -3.6039    3.5249 C.ar      1 <0>        -0.0639 
      30 Cl1        9.6953   -5.2887    3.2338 Cl        1 <0>        -0.0632 
      31 H1         3.3727    5.4690    9.1402 H         1 <0>         0.0596 
      32 H2         2.5951    6.7543    8.1909 H         1 <0>         0.0563 
      33 H3         1.6976    5.2709    8.5809 H         1 <0>         0.0575 
      34 H4         2.4909    5.2532    6.2329 H         1 <0>         0.0784 
      35 H5         4.9153    5.1389    5.7801 H         1 <0>         0.0596 
      36 H6         5.2537    5.3577    7.5109 H         1 <0>         0.0574 
      37 H7         4.4961    6.6690    6.5810 H         1 <0>         0.0563 
      38 H8         1.7063    3.5124    8.7254 H         1 <0>         0.1285 
      39 H9         1.7230    1.0136    8.9372 H         1 <0>         0.1293 
      40 H10        4.8387    0.7294    6.0497 H         1 <0>         0.1227 
      41 H11        4.9328    3.1985    5.8855 H         1 <0>         0.1262 
      42 H12        0.9978   -1.2458    6.5977 H         1 <0>         0.1329 
      43 H13        2.3000   -1.3867    5.3966 H         1 <0>         0.1329 
      44 H14        1.8572   -5.6880    5.6161 H         1 <0>         0.1063 
      45 H15        2.7870   -5.6190    7.1289 H         1 <0>         0.1054 
      46 H16        4.9674   -5.1210    7.7633 H         1 <0>         0.0686 
      47 H17        6.4982   -4.6288    7.0065 H         1 <0>         0.0794 
      48 H18        4.9892   -3.7893    6.5868 H         1 <0>         0.0778 
      49 H19        6.7371   -7.1358    5.7186 H         1 <0>         0.1198 
      50 H20        6.0100   -6.7672    4.1395 H         1 <0>         0.1233 
      51 H21        6.1557   -3.9963    3.9282 H         1 <0>         0.4142 
      52 H22        6.8720   -1.5347    4.5543 H         1 <0>         0.1473 
      53 H23        8.6384    0.1491    4.1511 H         1 <0>         0.1337 
      54 H24       10.8773   -0.5600    3.3474 H         1 <0>         0.1349 
      55 H25       11.3404   -2.9584    2.9312 H         1 <0>         0.1385 
@<TRIPOS>BOND
       1        1        2 1        
       2        1       31 1        
       3        1       32 1        
       4        1       33 1        
       5        2        3 1        
       6        2        4 1        
       7        2       34 1        
       8        3       35 1        
       9        3       36 1        
      10        3       37 1        
      11        4        9 ar       
      12        4        5 ar       
      13        5        6 ar       
      14        5       38 1        
      15        6        7 ar       
      16        6       39 1        
      17        7        8 ar       
      18        7       10 1        
      19        8        9 ar       
      20        8       40 1        
      21        9       41 1        
      22       10       11 1        
      23       11       12 1        
      24       11       42 1        
      25       11       43 1        
      26       12       13 2        
      27       12       14 1        
      28       14       15 1        
      29       15       16 1        
      30       15       44 1        
      31       15       45 1        
      32       16       17 2        
      33       16       18 am       
      34       18       19 1        
      35       18       20 1        
      36       19       46 1        
      37       19       47 1        
      38       19       48 1        
      39       20       21 1        
      40       20       49 1        
      41       20       50 1        
      42       21       22 2        
      43       21       23 am       
      44       23       24 1        
      45       23       51 1        
      46       24       29 ar       
      47       24       25 ar       
      48       25       26 ar       
      49       25       52 1        
      50       26       27 ar       
      51       26       53 1        
      52       27       28 ar       
      53       27       54 1        
      54       28       29 ar       
      55       28       55 1        
      56       29       30 1        

