#        1GCZ_R01_S0001_C0000_L00002_S0001_C0006_G0010_E0001.mol2
#        Tue Jun  6 14:03:20 2017
#        Descriptor:      3     7    27    15    10    15
#        Energy - RMSD - RMSD MassCentre:     -43.3210    999.9999    999.9999
#        Receptor:       1  Surface Point:     1  Conformer:     0
#        Ligand:         2  Surface Point:     1  Conformer:     6
#        BUDE Formal Charge: 0
#        ATOM Count: 22
#        Heavy ATOM Count: 16
@<TRIPOS>MOLECULE
ZINC02227500_0_1GCZ_R01_S0001_C0000_L00002_S0001_C0006_G0010_E0001
 22 24 1 0 0
SMALL
USER_CHARGES
INVALID_CHARGES
@<TRIPOS>ATOM
       1 C1         7.3538    1.8648    5.5797 C.3       1 <1>         0.3194 
       2 N1         6.9992    2.0006    6.9998 N.pl3     1 <1>        -0.4769 
       3 C2         7.8685    1.8129    7.9581 C.2       1 <1>         0.3171 
       4 C3         7.5362    1.9530    9.3934 C.2       1 <1>         0.3210 
       5 N2         8.5973    1.7055   10.1384 N.2       1 <1>        -0.2760 
       6 O1         9.5734    1.4162    9.1776 O.3       1 <1>         0.0506 
       7 N3         9.1388    1.4779    7.8297 N.2       1 <1>        -0.2740 
       8 N4         6.2807    2.2951    9.8219 N.pl3     1 <1>        -0.4794 
       9 C4         5.3653    2.4936    8.8223 C.2       1 <1>         0.3182 
      10 C5         5.7340    2.3447    7.3967 C.2       1 <1>         0.3113 
      11 N5         4.6830    2.5881    6.6361 N.2       1 <1>        -0.2636 
      12 O2         3.6843    2.8829    7.6001 O.3       1 <1>         0.0468 
      13 N6         4.0933    2.8271    8.9378 N.2       1 <1>        -0.2717 
      14 C6         5.9364    2.4258   11.2449 C.3       1 <1>         0.3187 
      15 O3         5.4969    1.1608   11.7464 O.3       1 <1>        -0.5831 
      16 O4         8.6358    2.4549    5.3491 O.3       1 <1>        -0.5790 
      17 H1         6.6077    2.3704    4.9704 H         1 <1>         0.0922 
      18 H2         7.3858    0.8107    5.3124 H         1 <1>         0.0977 
      19 H3         5.1400    3.1583   11.3589 H         1 <1>         0.0998 
      20 H4         6.8128    2.7524   11.8009 H         1 <1>         0.0941 
      21 H5         6.1833    0.4848   11.6330 H         1 <1>         0.4091 
      22 H6         8.8962    2.3673    4.4189 H         1 <1>         0.4075 
@<TRIPOS>BOND
       1        1        2 1        
       2        1       16 1        
       3        1       17 1        
       4        1       18 1        
       5        2       10 1        
       6        2        3 1        
       7        3        7 2        
       8        3        4 1        
       9        4        5 2        
      10        4        8 1        
      11        5        6 1        
      12        6        7 1        
      13        8        9 1        
      14        8       14 1        
      15        9       13 2        
      16        9       10 1        
      17       10       11 2        
      18       11       12 1        
      19       12       13 1        
      20       14       15 1        
      21       14       19 1        
      22       14       20 1        
      23       15       21 1        
      24       16       22 1        
@<TRIPOS>SUBSTRUCTURE
 1 **** 1 TEMP 0 **** **** 0 ROOT

