#        1GCZ_R01_S0001_C0000_L00001_S0001_C0000_G0010_E0001.mol2
#        Tue Jun  6 14:03:09 2017
#        Descriptor:     30     1     4     8     8     8
#        Energy - RMSD - RMSD MassCentre:     -69.1462    999.9999    999.9999
#        Receptor:       1  Surface Point:     1  Conformer:     0
#        Ligand:         1  Surface Point:     1  Conformer:     0
#        BUDE Formal Charge: 0
#        ATOM Count: 27
#        Heavy ATOM Count: 17
@<TRIPOS>MOLECULE
pdb1gcz_ligA.pdb_1GCZ_R01_S0001_C0000_L00001_S0001_C0000_G0010_E0001
27 28 1 0 0
SMALL
GASTEIGER
@<TRIPOS>ATOM
       1 C3         2.5801    0.9298    4.3028 C.3       1 YZ9900      0.0513 
       2 C11        2.2895   -0.1507    3.3008 C.3       1 YZ9900      0.2089 
       3 O1        -1.0176    0.7245    3.2465 O.2       1 YZ9900     -0.2447 
       4 O2         0.8549   -0.5210    3.3750 O.3       1 YZ9900     -0.4453 
       5 C6        -1.2904    1.8180   -1.8797 C.ar      1 YZ9900      0.0063 
       6 C5        -0.8585    0.9412    0.4451 C.ar      1 YZ9900      0.0160 
       7 C4        -0.2133   -0.6817   -2.9850 C.ar      1 YZ9900      0.0796 
       8 O3         0.1539   -1.4190   -0.7244 O.2       1 YZ9900     -0.4208 
       9 C2        -0.8213    0.7789   -1.0412 C.ar      1 YZ9900      0.0353 
      10 C1        -0.3014   -0.4300   -1.5977 C.ar      1 YZ9900      0.1519 
      11 C7         0.1973   -1.2711    0.5801 C.ar      1 YZ9900      0.3521 
      12 C12       -0.1738    0.0788    2.7034 C.2       1 YZ9900      0.3476 
      13 O4        -0.6594    0.2765   -5.1263 O.3       1 YZ9900     -0.2865 
      14 O5         0.6411   -2.1355    1.2241 O.2       1 YZ9900     -0.2442 
      15 C10       -1.2213    1.6149   -3.2887 C.ar      1 YZ9900      0.0422 
      16 C9        -0.2996   -0.0431    1.2144 C.ar      1 YZ9900      0.1515 
      17 C8        -0.6979    0.4009   -3.7885 C.ar      1 YZ9900      0.1988 
      18 H31        1.9491    1.7949    4.0984 H         1 YZ9900      0.0000 
      19 H32        2.3736    0.5589    5.3068 H         1 YZ9900      0.0000 
      20 H33        3.6284    1.2194    4.2309 H         1 YZ9900      0.0000 
      21 H112       2.9022   -1.0249    3.5213 H         1 YZ9900      0.0000 
      22 H113       2.5200    0.2113    2.2988 H         1 YZ9900      0.0000 
      23 H6        -1.6873    2.7332   -1.4662 H         1 YZ9900      0.0000 
      24 H5        -1.3131    1.8097    0.8981 H         1 YZ9900      0.0000 
      25 H4         0.1800   -1.5986   -3.3985 H         1 YZ9900      0.0000 
      26 HO4        0.0192    0.8546   -5.4826 H         1 YZ9900      0.0000 
      27 H10       -1.5654    2.3810   -3.9678 H         1 YZ9900      0.0000 
@<TRIPOS>BOND
       1       13       17 1        
       2        7       17 ar       
       3        7       10 ar       
       4        8       10 ar       
       5        8       11 ar       
       6       14       11 2        
       7       17       15 ar       
       8       10        9 ar       
       9       11       16 ar       
      10        2        4 1        
      11        2        1 1        
      12       15        5 ar       
      13        9        5 ar       
      14        9        6 ar       
      15       16        6 ar       
      16       16       12 1        
      17        4       12 1        
      18       12        3 2        
      19       18        1 1        
      20       19        1 1        
      21       20        1 1        
      22       21        2 1        
      23       22        2 1        
      24       23        5 1        
      25       24        6 1        
      26       25        7 1        
      27       26       13 1        
      28       27       15 1        
@<TRIPOS>SUBSTRUCTURE
 1 YZ9900 10 RESIDUE 4 A YZ9900 0 ROOT

