#        1GCZ_R01_S0001_C0000_L00005_S0001_C0026_G0010_E0001.mol2
#        Tue Jun  6 09:55:51 2017
#        Descriptor:      5    29    12    14     8    13
#        Energy - RMSD - RMSD MassCentre:     -58.4353    999.9999    999.9999
#        Receptor:       1  Surface Point:     1  Conformer:     0
#        Ligand:         5  Surface Point:     1  Conformer:    26
#        BUDE Formal Charge: 0
#        ATOM Count: 55
#        Heavy ATOM Count: 30
@<TRIPOS>MOLECULE
ZINC61464195_1GCZ_R01_S0001_C0000_L00005_S0001_C0026_G0010_E0001
 55 56 0 0 0
SMALL
USER_CHARGES
@<TRIPOS>ATOM
       1 C1        -0.4039    2.3631    4.4592 C.3       1 <0>        -0.1456 
       2 C2         0.9260    2.4353    5.2039 C.3       1 <0>        -0.0579 
       3 C3         0.6954    2.9927    6.6057 C.3       1 <0>        -0.1456 
       4 C4         1.5208    1.0513    5.3053 C.ar      1 <0>        -0.0771 
       5 C5         2.7689    0.8191    4.7154 C.ar      1 <0>        -0.0943 
       6 C6         3.3946   -0.4231    4.8755 C.ar      1 <0>        -0.0923 
       7 C7         2.7846   -1.4343    5.6272 C.ar      1 <0>        -0.1041 
       8 C8         1.5134   -1.2294    6.1766 C.ar      1 <0>        -0.1315 
       9 C9         0.8794    0.0037    5.9833 C.ar      1 <0>        -0.0969 
      10 S1         3.6235   -2.9733    5.8733 S.3       1 <0>        -0.0341 
      11 C10        4.6349   -2.8770    7.3833 C.3       1 <0>        -0.1267 
      12 C11        5.6609   -1.7795    7.2317 C.2       1 <0>         0.4864 
      13 O1         5.4836   -0.7186    7.7521 O.2       1 <0>        -0.4815 
      14 O2         6.7794   -1.9971    6.5077 O.3       1 <0>        -0.3231 
      15 C12        6.9480   -3.2823    5.9038 C.3       1 <0>         0.0526 
      16 C13        8.2538   -3.3141    5.1463 C.2       1 <0>         0.5250 
      17 O3         9.1108   -4.1484    5.4335 O.2       1 <0>        -0.5082 
      18 N1         8.4780   -2.4406    4.1688 N.am      1 <0>        -0.5981 
      19 C14        7.4538   -1.4436    3.8254 C.3       1 <0>         0.0731 
      20 C15        9.7499   -2.4729    3.4324 C.3       1 <0>         0.1010 
      21 C16       10.2513   -1.0625    3.2338 C.2       1 <0>         0.4997 
      22 O4        10.5656   -0.6745    2.1097 O.2       1 <0>        -0.5061 
      23 N2        10.3529   -0.2405    4.2745 N.am      1 <0>        -0.6702 
      24 C17       10.8228    1.0812    4.0883 C.ar      1 <0>         0.1553 
      25 C18       11.5720    1.4041    2.9507 C.ar      1 <0>        -0.1106 
      26 C19       12.0287    2.7147    2.7673 C.ar      1 <0>        -0.0959 
      27 C20       11.7466    3.6985    3.7190 C.ar      1 <0>        -0.1208 
      28 C21       11.0089    3.3735    4.8637 C.ar      1 <0>        -0.0919 
      29 C22       10.5448    2.0652    5.0446 C.ar      1 <0>        -0.0639 
      30 Cl1        9.6311    1.6562    6.4678 Cl        1 <0>        -0.0632 
      31 H1        -1.0919    1.7234    5.0078 H         1 <0>         0.0596 
      32 H2        -0.8260    3.3624    4.3744 H         1 <0>         0.0563 
      33 H3        -0.2403    1.9525    3.4650 H         1 <0>         0.0575 
      34 H4         1.6107    3.0848    4.6628 H         1 <0>         0.0784 
      35 H5         1.6460    3.0554    7.1312 H         1 <0>         0.0596 
      36 H6         0.0216    2.3348    7.1505 H         1 <0>         0.0574 
      37 H7         0.2545    3.9847    6.5327 H         1 <0>         0.0563 
      38 H8         3.2686    1.5907    4.1485 H         1 <0>         0.1285 
      39 H9         4.3587   -0.6485    4.4442 H         1 <0>         0.1293 
      40 H10        1.0471   -2.0253    6.7382 H         1 <0>         0.1227 
      41 H11       -0.1155    0.1321    6.3834 H         1 <0>         0.1262 
      42 H12        3.9950   -2.6590    8.2359 H         1 <0>         0.1329 
      43 H13        5.1415   -3.8266    7.5425 H         1 <0>         0.1329 
      44 H14        6.1259   -3.4712    5.2163 H         1 <0>         0.1063 
      45 H15        6.9588   -4.0483    6.6763 H         1 <0>         0.1054 
      46 H16        7.2593   -0.8122    4.6899 H         1 <0>         0.0686 
      47 H17        7.8082   -0.8303    2.9997 H         1 <0>         0.0794 
      48 H18        6.5373   -1.9520    3.5333 H         1 <0>         0.0778 
      49 H19       10.4827   -3.0424    4.0003 H         1 <0>         0.1198 
      50 H20        9.5955   -2.9434    2.4635 H         1 <0>         0.1233 
      51 H21       10.0945   -0.5602    5.1971 H         1 <0>         0.4142 
      52 H22       11.7938    0.6482    2.2118 H         1 <0>         0.1473 
      53 H23       12.6002    2.9636    1.8851 H         1 <0>         0.1337 
      54 H24       12.0957    4.7102    3.5751 H         1 <0>         0.1349 
      55 H25       10.7954    4.1310    5.6033 H         1 <0>         0.1385 
@<TRIPOS>BOND
       1        1        2 1        
       2        1       31 1        
       3        1       32 1        
       4        1       33 1        
       5        2        3 1        
       6        2        4 1        
       7        2       34 1        
       8        3       35 1        
       9        3       36 1        
      10        3       37 1        
      11        4        9 ar       
      12        4        5 ar       
      13        5        6 ar       
      14        5       38 1        
      15        6        7 ar       
      16        6       39 1        
      17        7        8 ar       
      18        7       10 1        
      19        8        9 ar       
      20        8       40 1        
      21        9       41 1        
      22       10       11 1        
      23       11       12 1        
      24       11       42 1        
      25       11       43 1        
      26       12       13 2        
      27       12       14 1        
      28       14       15 1        
      29       15       16 1        
      30       15       44 1        
      31       15       45 1        
      32       16       17 2        
      33       16       18 am       
      34       18       19 1        
      35       18       20 1        
      36       19       46 1        
      37       19       47 1        
      38       19       48 1        
      39       20       21 1        
      40       20       49 1        
      41       20       50 1        
      42       21       22 2        
      43       21       23 am       
      44       23       24 1        
      45       23       51 1        
      46       24       29 ar       
      47       24       25 ar       
      48       25       26 ar       
      49       25       52 1        
      50       26       27 ar       
      51       26       53 1        
      52       27       28 ar       
      53       27       54 1        
      54       28       29 ar       
      55       28       55 1        
      56       29       30 1        

