#        1GCZ_R01_S0001_C0000_L00005_S0001_C0026_G0010_E0001.mol2
#        Tue Jun  6 14:06:26 2017
#        Descriptor:      7    18    36     8     6    15
#        Energy - RMSD - RMSD MassCentre:     -53.7307    999.9999    999.9999
#        Receptor:       1  Surface Point:     1  Conformer:     0
#        Ligand:         5  Surface Point:     1  Conformer:    26
#        BUDE Formal Charge: 0
#        ATOM Count: 55
#        Heavy ATOM Count: 30
@<TRIPOS>MOLECULE
ZINC61464195_1GCZ_R01_S0001_C0000_L00005_S0001_C0026_G0010_E0001
 55 56 0 0 0
SMALL
USER_CHARGES
@<TRIPOS>ATOM
       1 C1        -2.3033    0.4776    1.0466 C.3       1 <0>        -0.1456 
       2 C2        -1.3974   -0.5321    1.7455 C.3       1 <0>        -0.0579 
       3 C3        -0.2847   -0.9625    0.7939 C.3       1 <0>        -0.1456 
       4 C4        -0.7905    0.1031    2.9734 C.ar      1 <0>        -0.0771 
       5 C5        -1.0626   -0.4693    4.2216 C.ar      1 <0>        -0.0943 
       6 C6        -0.4372    0.0327    5.3692 C.ar      1 <0>        -0.0923 
       7 C7         0.4643    1.0997    5.2779 C.ar      1 <0>        -0.1041 
       8 C8         0.7025    1.7124    4.0419 C.ar      1 <0>        -0.1315 
       9 C9         0.0472    1.2265    2.9043 C.ar      1 <0>        -0.0969 
      10 S1         1.2949    1.6744    6.7314 S.3       1 <0>        -0.0341 
      11 C10        2.8583    0.7653    6.9351 C.3       1 <0>        -0.1267 
      12 C11        2.5662   -0.7082    7.0891 C.2       1 <0>         0.4864 
      13 O1         2.7107   -1.4470    6.1611 O.2       1 <0>        -0.4815 
      14 O2         2.1416   -1.1912    8.2761 O.3       1 <0>        -0.3231 
      15 C12        1.9836   -0.2691    9.3576 C.3       1 <0>         0.0526 
      16 C13        1.5045   -1.0095   10.5833 C.2       1 <0>         0.5250 
      17 O3         2.1681   -0.9786   11.6185 O.2       1 <0>        -0.5082 
      18 N1         0.3656   -1.6951   10.5442 N.am      1 <0>        -0.5981 
      19 C14       -0.4275   -1.7320    9.3071 C.3       1 <0>         0.0731 
      20 C15       -0.0993   -2.4155   11.7384 C.3       1 <0>         0.1010 
      21 C16       -0.6180   -3.7750   11.3347 C.2       1 <0>         0.4997 
      22 O4        -1.7354   -4.1390   11.6975 O.2       1 <0>        -0.5061 
      23 N2         0.1339   -4.5781   10.5872 N.am      1 <0>        -0.6702 
      24 C17       -0.3522   -5.8520   10.2090 C.ar      1 <0>         0.1553 
      25 C18       -1.3887   -6.4499   10.9355 C.ar      1 <0>        -0.1106 
      26 C19       -1.8712   -7.7073   10.5533 C.ar      1 <0>        -0.0959 
      27 C20       -1.3165   -8.3704    9.4552 C.ar      1 <0>        -0.1208 
      28 C21       -0.2707   -7.7794    8.7360 C.ar      1 <0>        -0.0919 
      29 C22        0.2074   -6.5185    9.1123 C.ar      1 <0>        -0.0639 
      30 Cl1        1.5097   -5.7823    8.2237 Cl        1 <0>        -0.0632 
      31 H1        -1.7159    1.3414    0.7426 H         1 <0>         0.0596 
      32 H2        -2.7511    0.0156    0.1691 H         1 <0>         0.0563 
      33 H3        -3.0879    0.7943    1.7306 H         1 <0>         0.0575 
      34 H4        -1.9812   -1.4019    2.0389 H         1 <0>         0.0784 
      35 H5         0.3531   -1.6916    1.2891 H         1 <0>         0.0596 
      36 H6         0.3069   -0.0939    0.5124 H         1 <0>         0.0574 
      37 H7        -0.7225   -1.4082   -0.0969 H         1 <0>         0.0563 
      38 H8        -1.7384   -1.3066    4.3143 H         1 <0>         0.1285 
      39 H9        -0.6109   -0.3778    6.3529 H         1 <0>         0.1293 
      40 H10        1.3863    2.5467    3.9899 H         1 <0>         0.1227 
      41 H11        0.2150    1.7334    1.9655 H         1 <0>         0.1262 
      42 H12        3.4855    0.9204    6.0596 H         1 <0>         0.1329 
      43 H13        3.3758    1.1263    7.8214 H         1 <0>         0.1329 
      44 H14        1.2530    0.4896    9.0843 H         1 <0>         0.1063 
      45 H15        2.9383    0.2066    9.5721 H         1 <0>         0.1054 
      46 H16        0.1645   -2.1785    8.5109 H         1 <0>         0.0686 
      47 H17       -1.3245   -2.3257    9.4697 H         1 <0>         0.0794 
      48 H18       -0.7082   -0.7189    9.0267 H         1 <0>         0.0778 
      49 H19        0.7283   -2.5345   12.4345 H         1 <0>         0.1198 
      50 H20       -0.8968   -1.8493   12.2152 H         1 <0>         0.1233 
      51 H21        1.0513   -4.2780   10.2898 H         1 <0>         0.4142 
      52 H22       -1.8213   -5.9428   11.7854 H         1 <0>         0.1473 
      53 H23       -2.6762   -8.1635   11.1107 H         1 <0>         0.1337 
      54 H24       -1.6917   -9.3386    9.1583 H         1 <0>         0.1349 
      55 H25        0.1634   -8.2932    7.8911 H         1 <0>         0.1385 
@<TRIPOS>BOND
       1        1        2 1        
       2        1       31 1        
       3        1       32 1        
       4        1       33 1        
       5        2        3 1        
       6        2        4 1        
       7        2       34 1        
       8        3       35 1        
       9        3       36 1        
      10        3       37 1        
      11        4        9 ar       
      12        4        5 ar       
      13        5        6 ar       
      14        5       38 1        
      15        6        7 ar       
      16        6       39 1        
      17        7        8 ar       
      18        7       10 1        
      19        8        9 ar       
      20        8       40 1        
      21        9       41 1        
      22       10       11 1        
      23       11       12 1        
      24       11       42 1        
      25       11       43 1        
      26       12       13 2        
      27       12       14 1        
      28       14       15 1        
      29       15       16 1        
      30       15       44 1        
      31       15       45 1        
      32       16       17 2        
      33       16       18 am       
      34       18       19 1        
      35       18       20 1        
      36       19       46 1        
      37       19       47 1        
      38       19       48 1        
      39       20       21 1        
      40       20       49 1        
      41       20       50 1        
      42       21       22 2        
      43       21       23 am       
      44       23       24 1        
      45       23       51 1        
      46       24       29 ar       
      47       24       25 ar       
      48       25       26 ar       
      49       25       52 1        
      50       26       27 ar       
      51       26       53 1        
      52       27       28 ar       
      53       27       54 1        
      54       28       29 ar       
      55       28       55 1        
      56       29       30 1        

