#        1GCZ_R01_S0001_C0000_L00005_S0001_C0027_G0010_E0001.mol2
#        Tue Jun  6 09:55:51 2017
#        Descriptor:      6    23    14    11     7    13
#        Energy - RMSD - RMSD MassCentre:     -64.6641    999.9999    999.9999
#        Receptor:       1  Surface Point:     1  Conformer:     0
#        Ligand:         5  Surface Point:     1  Conformer:    27
#        BUDE Formal Charge: 0
#        ATOM Count: 55
#        Heavy ATOM Count: 30
@<TRIPOS>MOLECULE
ZINC61464195_1GCZ_R01_S0001_C0000_L00005_S0001_C0027_G0010_E0001
 55 56 0 0 0
SMALL
USER_CHARGES
@<TRIPOS>ATOM
       1 C1        -0.4001    0.7284   -0.0925 C.3       1 <0>        -0.1456 
       2 C2        -1.0672   -0.2431    0.8769 C.3       1 <0>        -0.0579 
       3 C3        -0.5319   -1.6516    0.6358 C.3       1 <0>        -0.1456 
       4 C4        -0.7623    0.1741    2.2956 C.ar      1 <0>        -0.0771 
       5 C5        -1.8318    0.5072    3.1352 C.ar      1 <0>        -0.0943 
       6 C6        -1.5936    0.8016    4.4830 C.ar      1 <0>        -0.0923 
       7 C7        -0.2936    0.7593    5.0005 C.ar      1 <0>        -0.1041 
       8 C8         0.7878    0.4788    4.1570 C.ar      1 <0>        -0.1315 
       9 C9         0.5450    0.2190    2.8030 C.ar      1 <0>        -0.0969 
      10 S1        -0.0231    1.0688    6.7221 S.3       1 <0>        -0.0341 
      11 C10       -0.1165   -0.4993    7.6413 C.3       1 <0>        -0.1267 
      12 C11        0.9529   -1.4401    7.1397 C.2       1 <0>         0.4864 
      13 O1         0.6689   -2.3192    6.3819 O.2       1 <0>        -0.4815 
      14 O2         2.2307   -1.2877    7.5477 O.3       1 <0>        -0.3231 
      15 C12        2.5226   -0.2215    8.4549 C.3       1 <0>         0.0526 
      16 C13        3.9969   -0.2288    8.7811 C.2       1 <0>         0.5250 
      17 O3         4.3676   -0.3449    9.9482 O.2       1 <0>        -0.5082 
      18 N1         4.8950   -0.1098    7.8074 N.am      1 <0>        -0.5981 
      19 C14        4.4520    0.0288    6.4126 C.3       1 <0>         0.0731 
      20 C15        6.3299   -0.1171    8.1268 C.3       1 <0>         0.1010 
      21 C16        7.0644   -0.9697    7.1199 C.2       1 <0>         0.4997 
      22 O4         8.0445   -0.5176    6.5304 O.2       1 <0>        -0.5061 
      23 N2         6.6510   -2.2091    6.8712 N.am      1 <0>        -0.6702 
      24 C17        7.3392   -3.0081    5.9278 C.ar      1 <0>         0.1553 
      25 C18        8.1519   -2.4055    4.9602 C.ar      1 <0>        -0.1106 
      26 C19        8.8367   -3.2004    4.0333 C.ar      1 <0>        -0.0959 
      27 C20        8.7051   -4.5915    4.0656 C.ar      1 <0>        -0.1208 
      28 C21        7.8819   -5.1944    5.0242 C.ar      1 <0>        -0.0919 
      29 C22        7.2029   -4.4013    5.9568 C.ar      1 <0>        -0.0639 
      30 Cl1        6.1757   -5.1464    7.1473 Cl        1 <0>        -0.0632 
      31 H1         0.6773    0.7068    0.0572 H         1 <0>         0.0596 
      32 H2        -0.6308    0.4355   -1.1147 H         1 <0>         0.0563 
      33 H3        -0.7721    1.7345    0.0898 H         1 <0>         0.0575 
      34 H4        -2.1437   -0.2316    0.7196 H         1 <0>         0.0784 
      35 H5        -1.0173   -2.3453    1.3191 H         1 <0>         0.0596 
      36 H6         0.5425   -1.6648    0.8070 H         1 <0>         0.0574 
      37 H7        -0.7398   -1.9471   -0.3905 H         1 <0>         0.0563 
      38 H8        -2.8458    0.5261    2.7638 H         1 <0>         0.1285 
      39 H9        -2.3855    1.0593    5.1707 H         1 <0>         0.1293 
      40 H10        1.7872    0.4681    4.5665 H         1 <0>         0.1227 
      41 H11        1.3936    0.0397    2.1594 H         1 <0>         0.1262 
      42 H12        0.0373   -0.3088    8.7014 H         1 <0>         0.1329 
      43 H13       -1.0950   -0.9506    7.4913 H         1 <0>         0.1329 
      44 H14        1.9488   -0.3554    9.3695 H         1 <0>         0.1063 
      45 H15        2.2581    0.7288    7.9959 H         1 <0>         0.1054 
      46 H16        3.8487    0.9286    6.3122 H         1 <0>         0.0686 
      47 H17        5.3212    0.0997    5.7621 H         1 <0>         0.0794 
      48 H18        3.8588   -0.8394    6.1331 H         1 <0>         0.0778 
      49 H19        6.7140    0.9002    8.0903 H         1 <0>         0.1198 
      50 H20        6.4767   -0.5254    9.1245 H         1 <0>         0.1233 
      51 H21        5.8459   -2.5795    7.3561 H         1 <0>         0.4142 
      52 H22        8.2575   -1.3310    4.9299 H         1 <0>         0.1473 
      53 H23        9.4692   -2.7340    3.2924 H         1 <0>         0.1337 
      54 H24        9.2366   -5.2045    3.3529 H         1 <0>         0.1349 
      55 H25        7.7741   -6.2688    5.0464 H         1 <0>         0.1385 
@<TRIPOS>BOND
       1        1        2 1        
       2        1       31 1        
       3        1       32 1        
       4        1       33 1        
       5        2        3 1        
       6        2        4 1        
       7        2       34 1        
       8        3       35 1        
       9        3       36 1        
      10        3       37 1        
      11        4        9 ar       
      12        4        5 ar       
      13        5        6 ar       
      14        5       38 1        
      15        6        7 ar       
      16        6       39 1        
      17        7        8 ar       
      18        7       10 1        
      19        8        9 ar       
      20        8       40 1        
      21        9       41 1        
      22       10       11 1        
      23       11       12 1        
      24       11       42 1        
      25       11       43 1        
      26       12       13 2        
      27       12       14 1        
      28       14       15 1        
      29       15       16 1        
      30       15       44 1        
      31       15       45 1        
      32       16       17 2        
      33       16       18 am       
      34       18       19 1        
      35       18       20 1        
      36       19       46 1        
      37       19       47 1        
      38       19       48 1        
      39       20       21 1        
      40       20       49 1        
      41       20       50 1        
      42       21       22 2        
      43       21       23 am       
      44       23       24 1        
      45       23       51 1        
      46       24       29 ar       
      47       24       25 ar       
      48       25       26 ar       
      49       25       52 1        
      50       26       27 ar       
      51       26       53 1        
      52       27       28 ar       
      53       27       54 1        
      54       28       29 ar       
      55       28       55 1        
      56       29       30 1        

