#        1GCZ_R01_S0001_C0000_L00005_S0001_C0027_G0010_E0001.mol2
#        Tue Jun  6 14:06:28 2017
#        Descriptor:     24    29    32    12     7    12
#        Energy - RMSD - RMSD MassCentre:     -65.4968    999.9999    999.9999
#        Receptor:       1  Surface Point:     1  Conformer:     0
#        Ligand:         5  Surface Point:     1  Conformer:    27
#        BUDE Formal Charge: 0
#        ATOM Count: 55
#        Heavy ATOM Count: 30
@<TRIPOS>MOLECULE
ZINC61464195_1GCZ_R01_S0001_C0000_L00005_S0001_C0027_G0010_E0001
 55 56 0 0 0
SMALL
USER_CHARGES
@<TRIPOS>ATOM
       1 C1        -0.5627    1.7040    0.4855 C.3       1 <0>        -0.1456 
       2 C2        -0.9811    0.5237    1.3576 C.3       1 <0>        -0.0579 
       3 C3        -0.5697   -0.7808    0.6811 C.3       1 <0>        -0.1456 
       4 C4        -0.3028    0.6277    2.7026 C.ar      1 <0>        -0.0771 
       5 C5        -1.1047    0.7361    3.8449 C.ar      1 <0>        -0.0943 
       6 C6        -0.5130    0.7339    5.1137 C.ar      1 <0>        -0.0923 
       7 C7         0.8754    0.6176    5.2502 C.ar      1 <0>        -0.1041 
       8 C8         1.6892    0.5616    4.1125 C.ar      1 <0>        -0.1315 
       9 C9         1.0924    0.5987    2.8467 C.ar      1 <0>        -0.0969 
      10 S1         1.5965    0.5489    6.8652 S.3       1 <0>        -0.0341 
      11 C10        1.7007   -1.1850    7.4086 C.3       1 <0>        -0.1267 
      12 C11        2.5729   -1.9603    6.4503 C.2       1 <0>         0.4864 
      13 O1         2.0743   -2.6594    5.6193 O.2       1 <0>        -0.4815 
      14 O2         3.9169   -1.8634    6.5324 O.3       1 <0>        -0.3231 
      15 C12        4.4678   -1.0146    7.5427 C.3       1 <0>         0.0526 
      16 C13        5.9752   -1.0497    7.4614 C.2       1 <0>         0.5250 
      17 O3         6.6351   -1.4085    8.4355 O.2       1 <0>        -0.5082 
      18 N1         6.5899   -0.6929    6.3373 N.am      1 <0>        -0.5981 
      19 C14        5.8013   -0.2642    5.1731 C.3       1 <0>         0.0731 
      20 C15        8.0575   -0.7276    6.2599 C.3       1 <0>         0.1010 
      21 C16        8.4769   -1.3158    4.9338 C.2       1 <0>         0.4997 
      22 O4         9.2813   -0.7162    4.2224 O.2       1 <0>        -0.5061 
      23 N2         7.9761   -2.4820    4.5360 N.am      1 <0>        -0.6702 
      24 C17        8.3691   -3.0332    3.2935 C.ar      1 <0>         0.1553 
      25 C18        8.9174   -2.2087    2.3038 C.ar      1 <0>        -0.1106 
      26 C19        9.3115   -2.7598    1.0786 C.ar      1 <0>        -0.0959 
      27 C20        9.1517   -4.1272    0.8377 C.ar      1 <0>        -0.1208 
      28 C21        8.5909   -4.9503    1.8215 C.ar      1 <0>        -0.0919 
      29 C22        8.2038   -4.4021    3.0502 C.ar      1 <0>        -0.0639 
      30 Cl1        7.5028   -5.4208    4.2742 Cl        1 <0>        -0.0632 
      31 H1         0.5152    1.6819    0.3391 H         1 <0>         0.0596 
      32 H2        -1.0618    1.6362   -0.4791 H         1 <0>         0.0563 
      33 H3        -0.8439    2.6338    0.9754 H         1 <0>         0.0575 
      34 H4        -2.0603    0.5375    1.4944 H         1 <0>         0.0784 
      35 H5        -0.8795   -1.6219    1.2979 H         1 <0>         0.0596 
      36 H6         0.5111   -0.7994    0.5576 H         1 <0>         0.0574 
      37 H7        -1.0480   -0.8495   -0.2938 H         1 <0>         0.0563 
      38 H8        -2.1794    0.8061    3.7658 H         1 <0>         0.1285 
      39 H9        -1.0891    0.8105    6.0242 H         1 <0>         0.1293 
      40 H10        2.7601    0.4909    4.2332 H         1 <0>         0.1227 
      41 H11        1.7371    0.5906    1.9802 H         1 <0>         0.1262 
      42 H12        2.1324   -1.2277    8.4064 H         1 <0>         0.1329 
      43 H13        0.7041   -1.6211    7.4249 H         1 <0>         0.1329 
      44 H14        4.1500   -1.3633    8.5231 H         1 <0>         0.1063 
      45 H15        4.1206    0.0051    7.3897 H         1 <0>         0.1054 
      46 H16        5.2197    0.6173    5.4347 H         1 <0>         0.0686 
      47 H17        6.4714   -0.0264    4.3498 H         1 <0>         0.0794 
      48 H18        5.1301   -1.0670    4.8751 H         1 <0>         0.0778 
      49 H19        8.4487    0.2838    6.3486 H         1 <0>         0.1198 
      50 H20        8.4483   -1.3407    7.0692 H         1 <0>         0.1233 
      51 H21        7.3156   -2.9736    5.1211 H         1 <0>         0.4142 
      52 H22        9.0432   -1.1512    2.4838 H         1 <0>         0.1473 
      53 H23        9.7413   -2.1233    0.3192 H         1 <0>         0.1337 
      54 H24        9.4595   -4.5525   -0.1061 H         1 <0>         0.1349 
      55 H25        8.4609   -6.0060    1.6345 H         1 <0>         0.1385 
@<TRIPOS>BOND
       1        1        2 1        
       2        1       31 1        
       3        1       32 1        
       4        1       33 1        
       5        2        3 1        
       6        2        4 1        
       7        2       34 1        
       8        3       35 1        
       9        3       36 1        
      10        3       37 1        
      11        4        9 ar       
      12        4        5 ar       
      13        5        6 ar       
      14        5       38 1        
      15        6        7 ar       
      16        6       39 1        
      17        7        8 ar       
      18        7       10 1        
      19        8        9 ar       
      20        8       40 1        
      21        9       41 1        
      22       10       11 1        
      23       11       12 1        
      24       11       42 1        
      25       11       43 1        
      26       12       13 2        
      27       12       14 1        
      28       14       15 1        
      29       15       16 1        
      30       15       44 1        
      31       15       45 1        
      32       16       17 2        
      33       16       18 am       
      34       18       19 1        
      35       18       20 1        
      36       19       46 1        
      37       19       47 1        
      38       19       48 1        
      39       20       21 1        
      40       20       49 1        
      41       20       50 1        
      42       21       22 2        
      43       21       23 am       
      44       23       24 1        
      45       23       51 1        
      46       24       29 ar       
      47       24       25 ar       
      48       25       26 ar       
      49       25       52 1        
      50       26       27 ar       
      51       26       53 1        
      52       27       28 ar       
      53       27       54 1        
      54       28       29 ar       
      55       28       55 1        
      56       29       30 1        

