#        1GCZ_R01_S0001_C0000_L00005_S0001_C0028_G0010_E0001.mol2
#        Tue Jun  6 14:06:30 2017
#        Descriptor:     14    15    16     8     8    13
#        Energy - RMSD - RMSD MassCentre:     -66.0595    999.9999    999.9999
#        Receptor:       1  Surface Point:     1  Conformer:     0
#        Ligand:         5  Surface Point:     1  Conformer:    28
#        BUDE Formal Charge: 0
#        ATOM Count: 55
#        Heavy ATOM Count: 30
@<TRIPOS>MOLECULE
ZINC61464195_1GCZ_R01_S0001_C0000_L00005_S0001_C0028_G0010_E0001
 55 56 0 0 0
SMALL
USER_CHARGES
@<TRIPOS>ATOM
       1 C1        -0.5259   -0.8299   -3.8320 C.3       1 <0>        -0.1456 
       2 C2         0.5025   -1.1578   -2.7534 C.3       1 <0>        -0.0579 
       3 C3         1.8399   -0.5170   -3.1129 C.3       1 <0>        -0.1456 
       4 C4         0.0275   -0.6181   -1.4257 C.ar      1 <0>        -0.0771 
       5 C5        -0.1881   -1.5224   -0.3790 C.ar      1 <0>        -0.0943 
       6 C6        -0.5318   -1.0472    0.8922 C.ar      1 <0>        -0.0923 
       7 C7        -0.6558    0.3273    1.1274 C.ar      1 <0>        -0.1041 
       8 C8        -0.4937    1.2360    0.0749 C.ar      1 <0>        -0.1315 
       9 C9        -0.1835    0.7507   -1.2011 C.ar      1 <0>        -0.0969 
      10 S1        -1.0247    0.9096    2.7576 S.3       1 <0>        -0.0341 
      11 C10        0.5274    1.2007    3.6624 C.3       1 <0>        -0.1267 
      12 C11        0.2127    1.6975    5.0532 C.2       1 <0>         0.4864 
      13 O1         0.3027    2.8617    5.3074 O.2       1 <0>        -0.4815 
      14 O2        -0.1707    0.8259    6.0101 O.3       1 <0>        -0.3231 
      15 C12       -0.2643   -0.5572    5.6591 C.3       1 <0>         0.0526 
      16 C13       -0.7056   -1.3527    6.8642 C.2       1 <0>         0.5250 
      17 O3        -1.7347   -2.0246    6.8139 O.2       1 <0>        -0.5082 
      18 N1         0.0176   -1.3274    7.9801 N.am      1 <0>        -0.5981 
      19 C14        1.2474   -0.5244    8.0402 C.3       1 <0>         0.0731 
      20 C15       -0.4136   -2.1024    9.1524 C.3       1 <0>         0.1010 
      21 C16       -0.2381   -1.2678   10.3986 C.2       1 <0>         0.4997 
      22 O4         0.3782   -1.7224   11.3610 O.2       1 <0>        -0.5061 
      23 N2        -0.7502   -0.0416   10.4548 N.am      1 <0>        -0.6702 
      24 C17       -0.5857    0.7405   11.6226 C.ar      1 <0>         0.1553 
      25 C18       -0.2865    0.1226   12.8425 C.ar      1 <0>        -0.1106 
      26 C19       -0.1176    0.9010   13.9938 C.ar      1 <0>        -0.0959 
      27 C20       -0.2549    2.2904   13.9309 C.ar      1 <0>        -0.1208 
      28 C21       -0.5674    2.9082   12.7140 C.ar      1 <0>        -0.0919 
      29 C22       -0.7287    2.1318   11.5603 C.ar      1 <0>        -0.0639 
      30 Cl1       -1.1212    2.8953   10.0468 Cl        1 <0>        -0.0632 
      31 H1        -0.6371    0.2496   -3.9100 H         1 <0>         0.0596 
      32 H2        -0.1901   -1.2305   -4.7862 H         1 <0>         0.0563 
      33 H3        -1.4827   -1.2756   -3.5675 H         1 <0>         0.0575 
      34 H4         0.6237   -2.2367   -2.6830 H         1 <0>         0.0784 
      35 H5         2.5755   -0.7618   -2.3495 H         1 <0>         0.0596 
      36 H6         1.7203    0.5630   -3.1690 H         1 <0>         0.0574 
      37 H7         2.1757   -0.8960   -4.0759 H         1 <0>         0.0563 
      38 H8        -0.0779   -2.5859   -0.5311 H         1 <0>         0.1285 
      39 H9        -0.7036   -1.7043    1.7320 H         1 <0>         0.1293 
      40 H10       -0.6108    2.2922    0.2672 H         1 <0>         0.1227 
      41 H11       -0.0973    1.4625   -2.0087 H         1 <0>         0.1262 
      42 H12        1.0893    0.2713    3.7284 H         1 <0>         0.1329 
      43 H13        1.1198    1.9469    3.1370 H         1 <0>         0.1329 
      44 H14        0.7082   -0.9140    5.3260 H         1 <0>         0.1063 
      45 H15       -0.9903   -0.6806    4.8582 H         1 <0>         0.1054 
      46 H16        1.0046    0.5227    7.8717 H         1 <0>         0.0686 
      47 H17        1.7063   -0.6380    9.0201 H         1 <0>         0.0794 
      48 H18        1.9398   -0.8648    7.2730 H         1 <0>         0.0778 
      49 H19       -1.4613   -2.3739    9.0417 H         1 <0>         0.1198 
      50 H20        0.1893   -3.0047    9.2317 H         1 <0>         0.1233 
      51 H21       -1.2560    0.3307    9.6638 H         1 <0>         0.4142 
      52 H22       -0.1796   -0.9508   12.8979 H         1 <0>         0.1473 
      53 H23        0.1207    0.4230   14.9327 H         1 <0>         0.1337 
      54 H24       -0.1206    2.8908   14.8184 H         1 <0>         0.1349 
      55 H25       -0.6802    3.9812   12.6648 H         1 <0>         0.1385 
@<TRIPOS>BOND
       1        1        2 1        
       2        1       31 1        
       3        1       32 1        
       4        1       33 1        
       5        2        3 1        
       6        2        4 1        
       7        2       34 1        
       8        3       35 1        
       9        3       36 1        
      10        3       37 1        
      11        4        9 ar       
      12        4        5 ar       
      13        5        6 ar       
      14        5       38 1        
      15        6        7 ar       
      16        6       39 1        
      17        7        8 ar       
      18        7       10 1        
      19        8        9 ar       
      20        8       40 1        
      21        9       41 1        
      22       10       11 1        
      23       11       12 1        
      24       11       42 1        
      25       11       43 1        
      26       12       13 2        
      27       12       14 1        
      28       14       15 1        
      29       15       16 1        
      30       15       44 1        
      31       15       45 1        
      32       16       17 2        
      33       16       18 am       
      34       18       19 1        
      35       18       20 1        
      36       19       46 1        
      37       19       47 1        
      38       19       48 1        
      39       20       21 1        
      40       20       49 1        
      41       20       50 1        
      42       21       22 2        
      43       21       23 am       
      44       23       24 1        
      45       23       51 1        
      46       24       29 ar       
      47       24       25 ar       
      48       25       26 ar       
      49       25       52 1        
      50       26       27 ar       
      51       26       53 1        
      52       27       28 ar       
      53       27       54 1        
      54       28       29 ar       
      55       28       55 1        
      56       29       30 1        

