#        1GCZ_R01_S0001_C0000_L00005_S0001_C0029_G0010_E0001.mol2
#        Tue Jun  6 09:55:53 2017
#        Descriptor:     26     5    27     9     9    11
#        Energy - RMSD - RMSD MassCentre:     -75.6315    999.9999    999.9999
#        Receptor:       1  Surface Point:     1  Conformer:     0
#        Ligand:         5  Surface Point:     1  Conformer:    29
#        BUDE Formal Charge: 0
#        ATOM Count: 55
#        Heavy ATOM Count: 30
@<TRIPOS>MOLECULE
ZINC61464195_1GCZ_R01_S0001_C0000_L00005_S0001_C0029_G0010_E0001
 55 56 0 0 0
SMALL
USER_CHARGES
@<TRIPOS>ATOM
       1 C1         1.2777    0.2856   -4.2948 C.3       1 <0>        -0.1456 
       2 C2         0.3610    1.2770   -3.5839 C.3       1 <0>        -0.0579 
       3 C3        -1.0014    1.2945   -4.2711 C.3       1 <0>        -0.1456 
       4 C4         0.1913    0.8600   -2.1426 C.ar      1 <0>        -0.0771 
       5 C5         0.6105    1.7436   -1.1410 C.ar      1 <0>        -0.0943 
       6 C6         0.3773    1.4329    0.2039 C.ar      1 <0>        -0.0923 
       7 C7        -0.2783    0.2471    0.5559 C.ar      1 <0>        -0.1041 
       8 C8        -0.6541   -0.6670   -0.4356 C.ar      1 <0>        -0.1315 
       9 C9        -0.3868   -0.3647   -1.7761 C.ar      1 <0>        -0.0969 
      10 S1        -0.6230   -0.0939    2.2583 S.3       1 <0>        -0.0341 
      11 C10       -2.2556    0.5830    2.6929 C.3       1 <0>        -0.1267 
      12 C11       -2.5497    0.2921    4.1452 C.2       1 <0>         0.4864 
      13 O1        -3.2785   -0.6079    4.4394 O.2       1 <0>        -0.4815 
      14 O2        -1.9886    1.0493    5.1117 O.3       1 <0>        -0.3231 
      15 C12       -1.1233    2.1151    4.7115 C.3       1 <0>         0.0526 
      16 C13       -0.6069    2.8303    5.9370 C.2       1 <0>         0.5250 
      17 O3        -0.8171    4.0337    6.0805 O.2       1 <0>        -0.5082 
      18 N1         0.0750    2.1599    6.8613 N.am      1 <0>        -0.5981 
      19 C14        0.5770    2.8577    8.0537 C.3       1 <0>         0.0731 
      20 C15        0.3261    0.7217    6.6899 C.3       1 <0>         0.1010 
      21 C16        1.7522    0.4110    7.0768 C.2       1 <0>         0.4997 
      22 O4         1.9886   -0.4884    7.8818 O.2       1 <0>        -0.5061 
      23 N2         2.7520    1.1102    6.5471 N.am      1 <0>        -0.6702 
      24 C17        4.0884    0.8191    6.9097 C.ar      1 <0>         0.1553 
      25 C18        4.3571    0.1313    8.0991 C.ar      1 <0>        -0.1106 
      26 C19        5.6804   -0.1609    8.4503 C.ar      1 <0>        -0.0959 
      27 C20        6.7333    0.2387    7.6225 C.ar      1 <0>        -0.1208 
      28 C21        6.4665    0.9386    6.4397 C.ar      1 <0>        -0.0919 
      29 C22        5.1432    1.2244    6.0832 C.ar      1 <0>        -0.0639 
      30 Cl1        4.8076    2.0975    4.6160 Cl        1 <0>        -0.0632 
      31 H1         0.8308   -0.7060   -4.2652 H         1 <0>         0.0596 
      32 H2         1.4106    0.5935   -5.3298 H         1 <0>         0.0563 
      33 H3         2.2440    0.2637   -3.7953 H         1 <0>         0.0575 
      34 H4         0.8007    2.2714   -3.6236 H         1 <0>         0.0784 
      35 H5        -1.6500    2.0107   -3.7712 H         1 <0>         0.0596 
      36 H6        -1.4462    0.3029   -4.2183 H         1 <0>         0.0574 
      37 H7        -0.8775    1.5820   -5.3132 H         1 <0>         0.0563 
      38 H8         1.0995    2.6741   -1.3889 H         1 <0>         0.1285 
      39 H9         0.6774    2.0839    1.0118 H         1 <0>         0.1293 
      40 H10       -1.1422   -1.5863   -0.1476 H         1 <0>         0.1227 
      41 H11       -0.6511   -1.0967   -2.5248 H         1 <0>         0.1262 
      42 H12       -2.2574    1.6590    2.5317 H         1 <0>         0.1329 
      43 H13       -3.0182    0.1209    2.0695 H         1 <0>         0.1329 
      44 H14       -1.6747    2.8163    4.0885 H         1 <0>         0.1063 
      45 H15       -0.2850    1.7104    4.1483 H         1 <0>         0.1054 
      46 H16       -0.2609    3.2740    8.6092 H         1 <0>         0.0686 
      47 H17        1.1173    2.1545    8.6840 H         1 <0>         0.0794 
      48 H18        1.2454    3.6603    7.7490 H         1 <0>         0.0778 
      49 H19       -0.3537    0.1573    7.3246 H         1 <0>         0.1198 
      50 H20        0.1640    0.4474    5.6496 H         1 <0>         0.1233 
      51 H21        2.5567    1.8486    5.8861 H         1 <0>         0.4142 
      52 H22        3.5479   -0.1800    8.7432 H         1 <0>         0.1473 
      53 H23        5.8852   -0.6983    9.3646 H         1 <0>         0.1337 
      54 H24        7.7537    0.0097    7.8920 H         1 <0>         0.1349 
      55 H25        7.2793    1.2537    5.8021 H         1 <0>         0.1385 
@<TRIPOS>BOND
       1        1        2 1        
       2        1       31 1        
       3        1       32 1        
       4        1       33 1        
       5        2        3 1        
       6        2        4 1        
       7        2       34 1        
       8        3       35 1        
       9        3       36 1        
      10        3       37 1        
      11        4        9 ar       
      12        4        5 ar       
      13        5        6 ar       
      14        5       38 1        
      15        6        7 ar       
      16        6       39 1        
      17        7        8 ar       
      18        7       10 1        
      19        8        9 ar       
      20        8       40 1        
      21        9       41 1        
      22       10       11 1        
      23       11       12 1        
      24       11       42 1        
      25       11       43 1        
      26       12       13 2        
      27       12       14 1        
      28       14       15 1        
      29       15       16 1        
      30       15       44 1        
      31       15       45 1        
      32       16       17 2        
      33       16       18 am       
      34       18       19 1        
      35       18       20 1        
      36       19       46 1        
      37       19       47 1        
      38       19       48 1        
      39       20       21 1        
      40       20       49 1        
      41       20       50 1        
      42       21       22 2        
      43       21       23 am       
      44       23       24 1        
      45       23       51 1        
      46       24       29 ar       
      47       24       25 ar       
      48       25       26 ar       
      49       25       52 1        
      50       26       27 ar       
      51       26       53 1        
      52       27       28 ar       
      53       27       54 1        
      54       28       29 ar       
      55       28       55 1        
      56       29       30 1        

