#        1GCZ_R01_S0001_C0000_L00005_S0001_C0030_G0010_E0001.mol2
#        Tue Jun  6 14:06:35 2017
#        Descriptor:     13    22    20    11     7    12
#        Energy - RMSD - RMSD MassCentre:     -66.3158    999.9999    999.9999
#        Receptor:       1  Surface Point:     1  Conformer:     0
#        Ligand:         5  Surface Point:     1  Conformer:    30
#        BUDE Formal Charge: 0
#        ATOM Count: 55
#        Heavy ATOM Count: 30
@<TRIPOS>MOLECULE
ZINC61464195_1GCZ_R01_S0001_C0000_L00005_S0001_C0030_G0010_E0001
 55 56 0 0 0
SMALL
USER_CHARGES
@<TRIPOS>ATOM
       1 C1        -1.4030    1.0741   -0.4407 C.3       1 <0>        -0.1456 
       2 C2        -0.6113   -0.0526    0.2168 C.3       1 <0>        -0.0579 
       3 C3         0.6213   -0.3682   -0.6256 C.3       1 <0>        -0.1456 
       4 C4        -0.1792    0.3768    1.5984 C.ar      1 <0>        -0.0771 
       5 C5        -0.9812    1.2910    2.2916 C.ar      1 <0>        -0.0943 
       6 C6        -0.6646    1.6342    3.6114 C.ar      1 <0>        -0.0923 
       7 C7         0.4455    1.0650    4.2468 C.ar      1 <0>        -0.1041 
       8 C8         1.2830    0.1904    3.5445 C.ar      1 <0>        -0.1315 
       9 C9         0.9788   -0.1214    2.2141 C.ar      1 <0>        -0.0969 
      10 S1         0.7885    1.4612    5.9375 S.3       1 <0>        -0.0341 
      11 C10       -0.0627    0.2736    7.0226 C.3       1 <0>        -0.1267 
      12 C11        0.4415   -1.1204    6.7350 C.2       1 <0>         0.4864 
      13 O1        -0.2084   -1.8651    6.0634 O.2       1 <0>        -0.4815 
      14 O2         1.6273   -1.5258    7.2371 O.3       1 <0>        -0.3231 
      15 C12        2.0633   -2.8544    6.9381 C.3       1 <0>         0.0526 
      16 C13        3.4021   -3.1027    7.5908 C.2       1 <0>         0.5250 
      17 O3         3.5328   -4.0257    8.3934 O.2       1 <0>        -0.5082 
      18 N1         4.4400   -2.3242    7.2986 N.am      1 <0>        -0.5981 
      19 C14        5.7426   -2.5673    7.9349 C.3       1 <0>         0.0731 
      20 C15        4.2839   -1.2213    6.3393 C.3       1 <0>         0.1010 
      21 C16        5.4789   -1.1845    5.4170 C.2       1 <0>         0.4997 
      22 O4         6.0993   -0.1347    5.2566 O.2       1 <0>        -0.5061 
      23 N2         5.8599   -2.2875    4.7788 N.am      1 <0>        -0.6702 
      24 C17        6.9798   -2.2530    3.9145 C.ar      1 <0>         0.1553 
      25 C18        6.9319   -2.9117    2.6801 C.ar      1 <0>        -0.1106 
      26 C19        8.0397   -2.8690    1.8252 C.ar      1 <0>        -0.0959 
      27 C20        9.1948   -2.1786    2.2031 C.ar      1 <0>        -0.1208 
      28 C21        9.2485   -1.5308    3.4432 C.ar      1 <0>        -0.0919 
      29 C22        8.1386   -1.5661    4.2957 C.ar      1 <0>        -0.0639 
      30 Cl1        8.2027   -0.7658    5.8394 Cl        1 <0>        -0.0632 
      31 H1        -0.7728    1.9567   -0.5271 H         1 <0>         0.0596 
      32 H2        -1.7258    0.7596   -1.4311 H         1 <0>         0.0563 
      33 H3        -2.2740    1.3076    0.1681 H         1 <0>         0.0575 
      34 H4        -1.2365   -0.9398    0.2925 H         1 <0>         0.0784 
      35 H5         1.1782   -1.1800   -0.1624 H         1 <0>         0.0596 
      36 H6         1.2525    0.5157   -0.6888 H         1 <0>         0.0574 
      37 H7         0.3105   -0.6648   -1.6252 H         1 <0>         0.0563 
      38 H8        -1.8544    1.7274    1.8296 H         1 <0>         0.1285 
      39 H9        -1.2547    2.3305    4.1889 H         1 <0>         0.1293 
      40 H10        2.1464   -0.2264    4.0418 H         1 <0>         0.1227 
      41 H11        1.6550   -0.7694    1.6763 H         1 <0>         0.1262 
      42 H12        0.1372    0.5236    8.0625 H         1 <0>         0.1329 
      43 H13       -1.1341    0.3163    6.8382 H         1 <0>         0.1329 
      44 H14        2.1586   -2.9715    5.8605 H         1 <0>         0.1063 
      45 H15        1.3369   -3.5696    7.3184 H         1 <0>         0.1054 
      46 H16        6.0923   -3.5642    7.6746 H         1 <0>         0.0686 
      47 H17        6.4599   -1.8278    7.5853 H         1 <0>         0.0794 
      48 H18        5.6379   -2.4898    9.0152 H         1 <0>         0.0778 
      49 H19        3.3787   -1.3749    5.7553 H         1 <0>         0.1198 
      50 H20        4.2124   -0.2794    6.8793 H         1 <0>         0.1233 
      51 H21        5.3498   -3.1491    4.9113 H         1 <0>         0.4142 
      52 H22        6.0426   -3.4473    2.3825 H         1 <0>         0.1473 
      53 H23        7.9982   -3.3715    0.8700 H         1 <0>         0.1337 
      54 H24       10.0475   -2.1425    1.5416 H         1 <0>         0.1349 
      55 H25       10.1425   -1.0023    3.7395 H         1 <0>         0.1385 
@<TRIPOS>BOND
       1        1        2 1        
       2        1       31 1        
       3        1       32 1        
       4        1       33 1        
       5        2        3 1        
       6        2        4 1        
       7        2       34 1        
       8        3       35 1        
       9        3       36 1        
      10        3       37 1        
      11        4        9 ar       
      12        4        5 ar       
      13        5        6 ar       
      14        5       38 1        
      15        6        7 ar       
      16        6       39 1        
      17        7        8 ar       
      18        7       10 1        
      19        8        9 ar       
      20        8       40 1        
      21        9       41 1        
      22       10       11 1        
      23       11       12 1        
      24       11       42 1        
      25       11       43 1        
      26       12       13 2        
      27       12       14 1        
      28       14       15 1        
      29       15       16 1        
      30       15       44 1        
      31       15       45 1        
      32       16       17 2        
      33       16       18 am       
      34       18       19 1        
      35       18       20 1        
      36       19       46 1        
      37       19       47 1        
      38       19       48 1        
      39       20       21 1        
      40       20       49 1        
      41       20       50 1        
      42       21       22 2        
      43       21       23 am       
      44       23       24 1        
      45       23       51 1        
      46       24       29 ar       
      47       24       25 ar       
      48       25       26 ar       
      49       25       52 1        
      50       26       27 ar       
      51       26       53 1        
      52       27       28 ar       
      53       27       54 1        
      54       28       29 ar       
      55       28       55 1        
      56       29       30 1        

