#        1GCZ_R01_S0001_C0000_L00002_S0001_C0007_G0010_E0001.mol2
#        Tue Jun  6 09:54:34 2017
#        Descriptor:     23    17    20    15    10    15
#        Energy - RMSD - RMSD MassCentre:     -48.2989    999.9999    999.9999
#        Receptor:       1  Surface Point:     1  Conformer:     0
#        Ligand:         2  Surface Point:     1  Conformer:     7
#        BUDE Formal Charge: 0
#        ATOM Count: 22
#        Heavy ATOM Count: 16
@<TRIPOS>MOLECULE
ZINC02227500_0_1GCZ_R01_S0001_C0000_L00002_S0001_C0007_G0010_E0001
 22 24 1 0 0
SMALL
USER_CHARGES
INVALID_CHARGES
@<TRIPOS>ATOM
       1 C1         5.6965    2.1024    6.3283 C.3       1 <1>         0.3194 
       2 N1         6.9999    1.9990    7.0001 N.pl3     1 <1>        -0.4769 
       3 C2         7.1087    1.8003    8.2877 C.2       1 <1>         0.3171 
       4 C3         8.4097    1.6839    8.9833 C.2       1 <1>         0.3210 
       5 N2         8.2255    1.4889   10.2758 N.2       1 <1>        -0.2760 
       6 O1         6.8294    1.4846   10.3790 O.3       1 <1>         0.0506 
       7 N3         6.1278    1.6759    9.1621 N.2       1 <1>        -0.2740 
       8 N4         9.6039    1.7751    8.3180 N.pl3     1 <1>        -0.4794 
       9 C4         9.4966    1.9829    6.9682 C.2       1 <1>         0.3182 
      10 C5         8.1775    2.0940    6.3064 C.2       1 <1>         0.3113 
      11 N5         8.3428    2.2904    5.0117 N.2       1 <1>        -0.2636 
      12 O2         9.7569    2.2972    4.8935 O.3       1 <1>         0.0468 
      13 N6        10.4687    2.1103    6.0844 N.2       1 <1>        -0.2717 
      14 C6        10.9018    1.6725    9.0003 C.3       1 <1>         0.3187 
      15 O3        11.7850    2.6780    8.4963 O.3       1 <1>        -0.5831 
      16 O4         4.8083    2.8881    7.1277 O.3       1 <1>        -0.5790 
      17 H1         5.2784    1.1071    6.1944 H         1 <1>         0.0922 
      18 H2         5.8249    2.5749    5.3568 H         1 <1>         0.0977 
      19 H3        11.3297    0.6889    8.8182 H         1 <1>         0.0998 
      20 H4        10.7611    1.8154   10.0695 H         1 <1>         0.0941 
      21 H5        12.6504    2.6304    8.9323 H         1 <1>         0.4091 
      22 H6         5.1766    3.7705    7.2909 H         1 <1>         0.4075 
@<TRIPOS>BOND
       1        1        2 1        
       2        1       16 1        
       3        1       17 1        
       4        1       18 1        
       5        2       10 1        
       6        2        3 1        
       7        3        7 2        
       8        3        4 1        
       9        4        5 2        
      10        4        8 1        
      11        5        6 1        
      12        6        7 1        
      13        8        9 1        
      14        8       14 1        
      15        9       13 2        
      16        9       10 1        
      17       10       11 2        
      18       11       12 1        
      19       12       13 1        
      20       14       15 1        
      21       14       19 1        
      22       14       20 1        
      23       15       21 1        
      24       16       22 1        
@<TRIPOS>SUBSTRUCTURE
 1 **** 1 TEMP 0 **** **** 0 ROOT

