#        1GCZ_R01_S0001_C0000_L00005_S0001_C0031_G0010_E0001.mol2
#        Tue Jun  6 09:55:55 2017
#        Descriptor:     34    36     1     9     8    13
#        Energy - RMSD - RMSD MassCentre:     -63.5178    999.9999    999.9999
#        Receptor:       1  Surface Point:     1  Conformer:     0
#        Ligand:         5  Surface Point:     1  Conformer:    31
#        BUDE Formal Charge: 0
#        ATOM Count: 55
#        Heavy ATOM Count: 30
@<TRIPOS>MOLECULE
ZINC61464195_1GCZ_R01_S0001_C0000_L00005_S0001_C0031_G0010_E0001
 55 56 0 0 0
SMALL
USER_CHARGES
@<TRIPOS>ATOM
       1 C1        -1.3121   -0.1055   -3.2644 C.3       1 <0>        -0.1456 
       2 C2        -0.1511    0.1843   -2.3173 C.3       1 <0>        -0.0579 
       3 C3         0.4291    1.5609   -2.6289 C.3       1 <0>        -0.1456 
       4 C4        -0.6475    0.1594   -0.8916 C.ar      1 <0>        -0.0771 
       5 C5        -0.0945   -0.7782   -0.0114 C.ar      1 <0>        -0.0943 
       6 C6        -0.4585   -0.7636    1.3404 C.ar      1 <0>        -0.0923 
       7 C7        -1.3674    0.1865    1.8213 C.ar      1 <0>        -0.1041 
       8 C8        -1.9651    1.0941    0.9389 C.ar      1 <0>        -0.1315 
       9 C9        -1.6216    1.0509   -0.4176 C.ar      1 <0>        -0.0969 
      10 S1        -1.7619    0.2301    3.5462 S.3       1 <0>        -0.0341 
      11 C10       -0.6064    1.3444    4.4037 C.3       1 <0>        -0.1267 
      12 C11        0.8038    0.8305    4.2375 C.2       1 <0>         0.4864 
      13 O1         1.5319    1.3307    3.4329 O.2       1 <0>        -0.4815 
      14 O2         1.2422   -0.1946    4.9986 O.3       1 <0>        -0.3231 
      15 C12        0.3351   -0.7611    5.9479 C.3       1 <0>         0.0526 
      16 C13        1.0197   -1.8849    6.6884 C.2       1 <0>         0.5250 
      17 O3         0.5460   -3.0196    6.6575 O.2       1 <0>        -0.5082 
      18 N1         2.1345   -1.6487    7.3740 N.am      1 <0>        -0.5981 
      19 C14        2.7998   -2.7439    8.0942 C.3       1 <0>         0.0731 
      20 C15        2.7009   -0.2927    7.4108 C.3       1 <0>         0.1010 
      21 C16        3.1483    0.0270    8.8171 C.2       1 <0>         0.4997 
      22 O4         4.2884    0.4413    9.0201 O.2       1 <0>        -0.5061 
      23 N2         2.3093   -0.1398    9.8356 N.am      1 <0>        -0.6702 
      24 C17        2.7285    0.1596   11.1534 C.ar      1 <0>         0.1553 
      25 C18        4.0937    0.2102   11.4593 C.ar      1 <0>        -0.1106 
      26 C19        4.5041    0.5140   12.7629 C.ar      1 <0>        -0.0959 
      27 C20        3.5562    0.7584   13.7605 C.ar      1 <0>        -0.1208 
      28 C21        2.1905    0.6948   13.4588 C.ar      1 <0>        -0.0919 
      29 C22        1.7788    0.3990   12.1539 C.ar      1 <0>        -0.0639 
      30 Cl1        0.0826    0.3150   11.7757 Cl        1 <0>        -0.0632 
      31 H1        -2.0769    0.6589   -3.1441 H         1 <0>         0.0596 
      32 H2        -0.9517   -0.1007   -4.2910 H         1 <0>         0.0563 
      33 H3        -1.7339   -1.0811   -3.0320 H         1 <0>         0.0575 
      34 H4         0.6199   -0.5724   -2.4455 H         1 <0>         0.0784 
      35 H5         1.2646    1.7612   -1.9614 H         1 <0>         0.0596 
      36 H6        -0.3391    2.3181   -2.4868 H         1 <0>         0.0574 
      37 H7         0.7747    1.5832   -3.6604 H         1 <0>         0.0563 
      38 H8         0.6244   -1.5073   -0.3547 H         1 <0>         0.1285 
      39 H9        -0.0561   -1.4626    2.0586 H         1 <0>         0.1293 
      40 H10       -2.6787    1.8090    1.3209 H         1 <0>         0.1227 
      41 H11       -2.1188    1.7342   -1.0900 H         1 <0>         0.1262 
      42 H12       -0.6804    2.3427    3.9776 H         1 <0>         0.1329 
      43 H13       -0.8556    1.3818    5.4621 H         1 <0>         0.1329 
      44 H14       -0.5387   -1.1491    5.4286 H         1 <0>         0.1063 
      45 H15        0.0262    0.0043    6.6568 H         1 <0>         0.1054 
      46 H16        3.0962   -3.5153    7.3865 H         1 <0>         0.0686 
      47 H17        3.6813   -2.3596    8.6031 H         1 <0>         0.0794 
      48 H18        2.1133   -3.1661    8.8252 H         1 <0>         0.0778 
      49 H19        3.5533   -0.2379    6.7370 H         1 <0>         0.1198 
      50 H20        1.9443    0.4242    7.0986 H         1 <0>         0.1233 
      51 H21        1.3731   -0.4801    9.6677 H         1 <0>         0.4142 
      52 H22        4.8311    0.0220   10.6929 H         1 <0>         0.1473 
      53 H23        5.5579    0.5599   12.9951 H         1 <0>         0.1337 
      54 H24        3.8733    0.9965   14.7650 H         1 <0>         0.1349 
      55 H25        1.4568    0.8771   14.2300 H         1 <0>         0.1385 
@<TRIPOS>BOND
       1        1        2 1        
       2        1       31 1        
       3        1       32 1        
       4        1       33 1        
       5        2        3 1        
       6        2        4 1        
       7        2       34 1        
       8        3       35 1        
       9        3       36 1        
      10        3       37 1        
      11        4        9 ar       
      12        4        5 ar       
      13        5        6 ar       
      14        5       38 1        
      15        6        7 ar       
      16        6       39 1        
      17        7        8 ar       
      18        7       10 1        
      19        8        9 ar       
      20        8       40 1        
      21        9       41 1        
      22       10       11 1        
      23       11       12 1        
      24       11       42 1        
      25       11       43 1        
      26       12       13 2        
      27       12       14 1        
      28       14       15 1        
      29       15       16 1        
      30       15       44 1        
      31       15       45 1        
      32       16       17 2        
      33       16       18 am       
      34       18       19 1        
      35       18       20 1        
      36       19       46 1        
      37       19       47 1        
      38       19       48 1        
      39       20       21 1        
      40       20       49 1        
      41       20       50 1        
      42       21       22 2        
      43       21       23 am       
      44       23       24 1        
      45       23       51 1        
      46       24       29 ar       
      47       24       25 ar       
      48       25       26 ar       
      49       25       52 1        
      50       26       27 ar       
      51       26       53 1        
      52       27       28 ar       
      53       27       54 1        
      54       28       29 ar       
      55       28       55 1        
      56       29       30 1        

