#        1GCZ_R01_S0001_C0000_L00005_S0001_C0031_G0010_E0001.mol2
#        Tue Jun  6 14:06:37 2017
#        Descriptor:      8    23    12    14     9    13
#        Energy - RMSD - RMSD MassCentre:     -57.2778    999.9999    999.9999
#        Receptor:       1  Surface Point:     1  Conformer:     0
#        Ligand:         5  Surface Point:     1  Conformer:    31
#        BUDE Formal Charge: 0
#        ATOM Count: 55
#        Heavy ATOM Count: 30
@<TRIPOS>MOLECULE
ZINC61464195_1GCZ_R01_S0001_C0000_L00005_S0001_C0031_G0010_E0001
 55 56 0 0 0
SMALL
USER_CHARGES
@<TRIPOS>ATOM
       1 C1        -2.4033   -0.6194    5.6475 C.3       1 <0>        -0.1456 
       2 C2        -1.1680   -0.8646    4.7857 C.3       1 <0>        -0.0579 
       3 C3        -1.4786   -0.5044    3.3357 C.3       1 <0>        -0.1456 
       4 C4        -0.0297   -0.0066    5.2836 C.ar      1 <0>        -0.0771 
       5 C5         1.1335   -0.6417    5.7347 C.ar      1 <0>        -0.0943 
       6 C6         2.2443    0.1238    6.1091 C.ar      1 <0>        -0.0923 
       7 C7         2.2038    1.5210    6.0298 C.ar      1 <0>        -0.1041 
       8 C8         1.0277    2.1665    5.6301 C.ar      1 <0>        -0.1315 
       9 C9        -0.0899    1.3950    5.2900 C.ar      1 <0>        -0.0969 
      10 S1         3.6419    2.4662    6.4437 S.3       1 <0>        -0.0341 
      11 C10        4.6548    2.7122    4.9518 C.3       1 <0>        -0.1267 
      12 C11        5.0900    1.3703    4.4131 C.2       1 <0>         0.4864 
      13 O1         4.5255    0.8903    3.4757 O.2       1 <0>        -0.4815 
      14 O2         6.1175    0.7126    4.9909 O.3       1 <0>        -0.3231 
      15 C12        6.7624    1.3264    6.1100 C.3       1 <0>         0.0526 
      16 C13        7.8751    0.4318    6.6015 C.2       1 <0>         0.5250 
      17 O3         7.8682    0.0233    7.7618 O.2       1 <0>        -0.5082 
      18 N1         8.8626    0.0853    5.7809 N.am      1 <0>        -0.5981 
      19 C14        9.9451   -0.7857    6.2610 C.3       1 <0>         0.0731 
      20 C15        8.8708    0.5733    4.3943 C.3       1 <0>         0.1010 
      21 C16       10.2694    1.0031    4.0211 C.2       1 <0>         0.4997 
      22 O4        10.7924    0.5700    2.9956 O.2       1 <0>        -0.5061 
      23 N2        10.9351    1.8496    4.8017 N.am      1 <0>        -0.6702 
      24 C17       12.2457    2.2522    4.4521 C.ar      1 <0>         0.1553 
      25 C18       13.0044    1.4757    3.5681 C.ar      1 <0>        -0.1106 
      26 C19       14.2980    1.8818    3.2194 C.ar      1 <0>        -0.0959 
      27 C20       14.8369    3.0541    3.7567 C.ar      1 <0>        -0.1208 
      28 C21       14.0842    3.8243    4.6513 C.ar      1 <0>        -0.0919 
      29 C22       12.7875    3.4237    4.9947 C.ar      1 <0>        -0.0639 
      30 Cl1       11.8502    4.3759    6.1093 Cl        1 <0>        -0.0632 
      31 H1        -2.6930    0.4268    5.5755 H         1 <0>         0.0596 
      32 H2        -3.2197   -1.2475    5.2969 H         1 <0>         0.0563 
      33 H3        -2.1763   -0.8631    6.6832 H         1 <0>         0.0575 
      34 H4        -0.8846   -1.9132    4.8469 H         1 <0>         0.0784 
      35 H5        -0.6011   -0.6914    2.7202 H         1 <0>         0.0596 
      36 H6        -1.7483    0.5478    3.2738 H         1 <0>         0.0574 
      37 H7        -2.3077   -1.1133    2.9810 H         1 <0>         0.0563 
      38 H8         1.1959   -1.7187    5.7845 H         1 <0>         0.1285 
      39 H9         3.1650   -0.3195    6.4587 H         1 <0>         0.1293 
      40 H10        1.0051    3.2455    5.5918 H         1 <0>         0.1227 
      41 H11       -0.9996    1.9099    5.0185 H         1 <0>         0.1262 
      42 H12        4.0694    3.2327    4.1968 H         1 <0>         0.1329 
      43 H13        5.5329    3.3038    5.2023 H         1 <0>         0.1329 
      44 H14        6.0390    1.4765    6.9087 H         1 <0>         0.1063 
      45 H15        7.1760    2.2867    5.8093 H         1 <0>         0.1054 
      46 H16        9.5291   -1.7409    6.5745 H         1 <0>         0.0686 
      47 H17       10.6623   -0.9473    5.4590 H         1 <0>         0.0794 
      48 H18       10.4436   -0.3123    7.1044 H         1 <0>         0.0778 
      49 H19        8.5456   -0.2231    3.7283 H         1 <0>         0.1198 
      50 H20        8.1944    1.4207    4.3048 H         1 <0>         0.1233 
      51 H21       10.5046    2.2046    5.6437 H         1 <0>         0.4142 
      52 H22       12.5937    0.5686    3.1498 H         1 <0>         0.1473 
      53 H23       14.8789    1.2852    2.5314 H         1 <0>         0.1337 
      54 H24       15.8334    3.3689    3.4844 H         1 <0>         0.1349 
      55 H25       14.5015    4.7270    5.0723 H         1 <0>         0.1385 
@<TRIPOS>BOND
       1        1        2 1        
       2        1       31 1        
       3        1       32 1        
       4        1       33 1        
       5        2        3 1        
       6        2        4 1        
       7        2       34 1        
       8        3       35 1        
       9        3       36 1        
      10        3       37 1        
      11        4        9 ar       
      12        4        5 ar       
      13        5        6 ar       
      14        5       38 1        
      15        6        7 ar       
      16        6       39 1        
      17        7        8 ar       
      18        7       10 1        
      19        8        9 ar       
      20        8       40 1        
      21        9       41 1        
      22       10       11 1        
      23       11       12 1        
      24       11       42 1        
      25       11       43 1        
      26       12       13 2        
      27       12       14 1        
      28       14       15 1        
      29       15       16 1        
      30       15       44 1        
      31       15       45 1        
      32       16       17 2        
      33       16       18 am       
      34       18       19 1        
      35       18       20 1        
      36       19       46 1        
      37       19       47 1        
      38       19       48 1        
      39       20       21 1        
      40       20       49 1        
      41       20       50 1        
      42       21       22 2        
      43       21       23 am       
      44       23       24 1        
      45       23       51 1        
      46       24       29 ar       
      47       24       25 ar       
      48       25       26 ar       
      49       25       52 1        
      50       26       27 ar       
      51       26       53 1        
      52       27       28 ar       
      53       27       54 1        
      54       28       29 ar       
      55       28       55 1        
      56       29       30 1        

