#        1GCZ_R01_S0001_C0000_L00005_S0001_C0032_G0010_E0001.mol2
#        Tue Jun  6 09:55:56 2017
#        Descriptor:     23    30    28    12     7    13
#        Energy - RMSD - RMSD MassCentre:     -67.6397    999.9999    999.9999
#        Receptor:       1  Surface Point:     1  Conformer:     0
#        Ligand:         5  Surface Point:     1  Conformer:    32
#        BUDE Formal Charge: 0
#        ATOM Count: 55
#        Heavy ATOM Count: 30
@<TRIPOS>MOLECULE
ZINC61464195_1GCZ_R01_S0001_C0000_L00005_S0001_C0032_G0010_E0001
 55 56 0 0 0
SMALL
USER_CHARGES
@<TRIPOS>ATOM
       1 C1         0.6125    1.1843    0.6388 C.3       1 <0>        -0.1456 
       2 C2        -0.3261    0.5648    1.6703 C.3       1 <0>        -0.0579 
       3 C3        -0.6581   -0.8675    1.2617 C.3       1 <0>        -0.1456 
       4 C4         0.3468    0.5584    3.0219 C.ar      1 <0>        -0.0771 
       5 C5        -0.2552    1.2683    4.0676 C.ar      1 <0>        -0.0943 
       6 C6         0.2869    1.2023    5.3567 C.ar      1 <0>        -0.0923 
       7 C7         1.4240    0.4261    5.6105 C.ar      1 <0>        -0.1041 
       8 C8         2.0631   -0.2448    4.5612 C.ar      1 <0>        -0.1315 
       9 C9         1.5346   -0.1463    3.2686 C.ar      1 <0>        -0.0969 
      10 S1         2.0529    0.3027    7.2604 S.3       1 <0>        -0.0341 
      11 C10        1.2712   -1.1087    8.1026 C.3       1 <0>        -0.1267 
      12 C11        1.5978   -2.3814    7.3584 C.2       1 <0>         0.4864 
      13 O1         0.7893   -2.8716    6.6278 O.2       1 <0>        -0.4815 
      14 O2         2.8041   -2.9658    7.5187 O.3       1 <0>        -0.3231 
      15 C12        3.7391   -2.3427    8.4033 C.3       1 <0>         0.0526 
      16 C13        5.0139   -3.1513    8.4376 C.2       1 <0>         0.5250 
      17 O3         5.4242   -3.6068    9.5040 O.2       1 <0>        -0.5082 
      18 N1         5.6933   -3.3713    7.3157 N.am      1 <0>        -0.5981 
      19 C14        6.9341   -4.1587    7.3509 C.3       1 <0>         0.0731 
      20 C15        5.2028   -2.8271    6.0412 C.3       1 <0>         0.1010 
      21 C16        6.3617   -2.2558    5.2597 C.2       1 <0>         0.4997 
      22 O4         6.5424   -2.5959    4.0916 O.2       1 <0>        -0.5061 
      23 N2         7.1864   -1.3852    5.8349 N.am      1 <0>        -0.6702 
      24 C17        8.2723   -0.8499    5.1026 C.ar      1 <0>         0.1553 
      25 C18        8.7467   -1.5160    3.9663 C.ar      1 <0>        -0.1106 
      26 C19        9.8167   -0.9789    3.2406 C.ar      1 <0>        -0.0959 
      27 C20       10.4174    0.2144    3.6512 C.ar      1 <0>        -0.1208 
      28 C21        9.9527    0.8743    4.7952 C.ar      1 <0>        -0.0919 
      29 C22        8.8776    0.3426    5.5172 C.ar      1 <0>        -0.0639 
      30 Cl1        8.2995    1.1575    6.9417 Cl        1 <0>        -0.0632 
      31 H1         1.5232    0.5923    0.5762 H         1 <0>         0.0596 
      32 H2         0.1226    1.2010   -0.3326 H         1 <0>         0.0563 
      33 H3         0.8597    2.2006    0.9385 H         1 <0>         0.0575 
      34 H4        -1.2424    1.1488    1.7248 H         1 <0>         0.0784 
      35 H5        -1.3371   -1.3039    1.9913 H         1 <0>         0.0596 
      36 H6         0.2575   -1.4539    1.2212 H         1 <0>         0.0574 
      37 H7        -1.1309   -0.8641    0.2818 H         1 <0>         0.0563 
      38 H8        -1.1449    1.8572    3.9006 H         1 <0>         0.1285 
      39 H9        -0.1437    1.7278    6.1963 H         1 <0>         0.1293 
      40 H10        2.9503   -0.8247    4.7688 H         1 <0>         0.1227 
      41 H11        2.0603   -0.6408    2.4652 H         1 <0>         0.1262 
      42 H12        1.6477   -1.1781    9.1210 H         1 <0>         0.1329 
      43 H13        0.1925   -0.9678    8.1227 H         1 <0>         0.1329 
      44 H14        3.3148   -2.2930    9.4039 H         1 <0>         0.1063 
      45 H15        3.9578   -1.3368    8.0510 H         1 <0>         0.1054 
      46 H16        6.7171   -5.1603    7.7163 H         1 <0>         0.0686 
      47 H17        7.3523   -4.2203    6.3484 H         1 <0>         0.0794 
      48 H18        7.6497   -3.6772    8.0142 H         1 <0>         0.0778 
      49 H19        4.7327   -3.6215    5.4654 H         1 <0>         0.1198 
      50 H20        4.4757   -2.0422    6.2387 H         1 <0>         0.1233 
      51 H21        7.0370   -1.1066    6.7942 H         1 <0>         0.4142 
      52 H22        8.2869   -2.4387    3.6441 H         1 <0>         0.1473 
      53 H23       10.1764   -1.4905    2.3600 H         1 <0>         0.1337 
      54 H24       11.2403    0.6303    3.0889 H         1 <0>         0.1349 
      55 H25       10.4199    1.7931    5.1174 H         1 <0>         0.1385 
@<TRIPOS>BOND
       1        1        2 1        
       2        1       31 1        
       3        1       32 1        
       4        1       33 1        
       5        2        3 1        
       6        2        4 1        
       7        2       34 1        
       8        3       35 1        
       9        3       36 1        
      10        3       37 1        
      11        4        9 ar       
      12        4        5 ar       
      13        5        6 ar       
      14        5       38 1        
      15        6        7 ar       
      16        6       39 1        
      17        7        8 ar       
      18        7       10 1        
      19        8        9 ar       
      20        8       40 1        
      21        9       41 1        
      22       10       11 1        
      23       11       12 1        
      24       11       42 1        
      25       11       43 1        
      26       12       13 2        
      27       12       14 1        
      28       14       15 1        
      29       15       16 1        
      30       15       44 1        
      31       15       45 1        
      32       16       17 2        
      33       16       18 am       
      34       18       19 1        
      35       18       20 1        
      36       19       46 1        
      37       19       47 1        
      38       19       48 1        
      39       20       21 1        
      40       20       49 1        
      41       20       50 1        
      42       21       22 2        
      43       21       23 am       
      44       23       24 1        
      45       23       51 1        
      46       24       29 ar       
      47       24       25 ar       
      48       25       26 ar       
      49       25       52 1        
      50       26       27 ar       
      51       26       53 1        
      52       27       28 ar       
      53       27       54 1        
      54       28       29 ar       
      55       28       55 1        
      56       29       30 1        

