#        1GCZ_R01_S0001_C0000_L00005_S0001_C0032_G0010_E0001.mol2
#        Tue Jun  6 14:06:39 2017
#        Descriptor:     25    28    30    10     6    14
#        Energy - RMSD - RMSD MassCentre:     -58.6475    999.9999    999.9999
#        Receptor:       1  Surface Point:     1  Conformer:     0
#        Ligand:         5  Surface Point:     1  Conformer:    32
#        BUDE Formal Charge: 0
#        ATOM Count: 55
#        Heavy ATOM Count: 30
@<TRIPOS>MOLECULE
ZINC61464195_1GCZ_R01_S0001_C0000_L00005_S0001_C0032_G0010_E0001
 55 56 0 0 0
SMALL
USER_CHARGES
@<TRIPOS>ATOM
       1 C1        -1.4532    1.5387    2.7108 C.3       1 <0>        -0.1456 
       2 C2        -2.3746    0.5776    3.4564 C.3       1 <0>        -0.0579 
       3 C3        -2.6895   -0.6206    2.5654 C.3       1 <0>        -0.1456 
       4 C4        -1.6908    0.1013    4.7155 C.ar      1 <0>        -0.0771 
       5 C5        -2.2943    0.3826    5.9469 C.ar      1 <0>        -0.0943 
       6 C6        -1.7410   -0.1292    7.1267 C.ar      1 <0>        -0.0923 
       7 C7        -0.5910   -0.9265    7.0847 C.ar      1 <0>        -0.1041 
       8 C8         0.0491   -1.1695    5.8636 C.ar      1 <0>        -0.1315 
       9 C9        -0.4912   -0.6258    4.6922 C.ar      1 <0>        -0.0969 
      10 S1         0.0529   -1.6189    8.5809 S.3       1 <0>        -0.0341 
      11 C10       -0.7019   -3.2501    8.8673 C.3       1 <0>        -0.1267 
      12 C11       -0.3632   -4.1691    7.7179 C.2       1 <0>         0.4864 
      13 O1        -1.1706   -4.3800    6.8626 O.2       1 <0>        -0.4815 
      14 O2         0.8525   -4.7526    7.6566 O.3       1 <0>        -0.3231 
      15 C12        1.7857   -4.4703    8.7027 C.3       1 <0>         0.0526 
      16 C13        3.0720   -5.2175    8.4438 C.2       1 <0>         0.5250 
      17 O3         3.4974   -6.0160    9.2770 O.2       1 <0>        -0.5082 
      18 N1         3.7454   -5.0126    7.3154 N.am      1 <0>        -0.5981 
      19 C14        4.9975   -5.7408    7.0648 C.3       1 <0>         0.0731 
      20 C15        3.2370   -4.0584    6.3194 C.3       1 <0>         0.1010 
      21 C16        4.3813   -3.2277    5.7897 C.2       1 <0>         0.4997 
      22 O4         4.5574   -3.1267    4.5766 O.2       1 <0>        -0.5061 
      23 N2         5.1982   -2.6057    6.6351 N.am      1 <0>        -0.6702 
      24 C17        6.2704   -1.8273    6.1387 C.ar      1 <0>         0.1553 
      25 C18        6.7451   -2.0375    4.8386 C.ar      1 <0>        -0.1106 
      26 C19        7.8014   -1.2601    4.3491 C.ar      1 <0>        -0.0959 
      27 C20        8.3885   -0.2816    5.1561 C.ar      1 <0>        -0.1208 
      28 C21        7.9236   -0.0797    6.4612 C.ar      1 <0>        -0.0919 
      29 C22        6.8620   -0.8509    6.9493 C.ar      1 <0>        -0.0639 
      30 Cl1        6.2839   -0.6059    8.5720 Cl        1 <0>        -0.0632 
      31 H1        -0.5348    1.0226    2.4393 H         1 <0>         0.0596 
      32 H2        -1.9512    1.8922    1.8103 H         1 <0>         0.0563 
      33 H3        -1.2181    2.3856    3.3521 H         1 <0>         0.0575 
      34 H4        -3.2986    1.0890    3.7175 H         1 <0>         0.0784 
      35 H5        -3.3563   -1.2991    3.0935 H         1 <0>         0.0596 
      36 H6        -1.7660   -1.1393    2.3165 H         1 <0>         0.0574 
      37 H7        -3.1702   -0.2762    1.6521 H         1 <0>         0.0563 
      38 H8        -3.1937    0.9779    6.0028 H         1 <0>         0.1285 
      39 H9        -2.1723    0.0560    8.0995 H         1 <0>         0.1293 
      40 H10        0.9461   -1.7709    5.8489 H         1 <0>         0.1227 
      41 H11        0.0350   -0.7933    3.7641 H         1 <0>         0.1262 
      42 H12       -0.3162   -3.6714    9.7933 H         1 <0>         0.1329 
      43 H13       -1.7822   -3.1430    8.9390 H         1 <0>         0.1329 
      44 H14        1.3688   -4.7869    9.6566 H         1 <0>         0.1063 
      45 H15        1.9872   -3.4015    8.7312 H         1 <0>         0.1054 
      46 H16        4.7977   -6.8103    7.0502 H         1 <0>         0.0686 
      47 H17        5.4085   -5.4348    6.1051 H         1 <0>         0.0794 
      48 H18        5.7116   -5.5156    7.8543 H         1 <0>         0.0778 
      49 H19        2.7736   -4.6032    5.4997 H         1 <0>         0.1198 
      50 H20        2.5005   -3.4071    6.7852 H         1 <0>         0.1233 
      51 H21        5.0526   -2.6893    7.6312 H         1 <0>         0.4142 
      52 H22        6.2959   -2.7923    4.2100 H         1 <0>         0.1473 
      53 H23        8.1612   -1.4188    3.3431 H         1 <0>         0.1337 
      54 H24        9.2008    0.3205    4.7767 H         1 <0>         0.1349 
      55 H25        8.3803    0.6716    7.0883 H         1 <0>         0.1385 
@<TRIPOS>BOND
       1        1        2 1        
       2        1       31 1        
       3        1       32 1        
       4        1       33 1        
       5        2        3 1        
       6        2        4 1        
       7        2       34 1        
       8        3       35 1        
       9        3       36 1        
      10        3       37 1        
      11        4        9 ar       
      12        4        5 ar       
      13        5        6 ar       
      14        5       38 1        
      15        6        7 ar       
      16        6       39 1        
      17        7        8 ar       
      18        7       10 1        
      19        8        9 ar       
      20        8       40 1        
      21        9       41 1        
      22       10       11 1        
      23       11       12 1        
      24       11       42 1        
      25       11       43 1        
      26       12       13 2        
      27       12       14 1        
      28       14       15 1        
      29       15       16 1        
      30       15       44 1        
      31       15       45 1        
      32       16       17 2        
      33       16       18 am       
      34       18       19 1        
      35       18       20 1        
      36       19       46 1        
      37       19       47 1        
      38       19       48 1        
      39       20       21 1        
      40       20       49 1        
      41       20       50 1        
      42       21       22 2        
      43       21       23 am       
      44       23       24 1        
      45       23       51 1        
      46       24       29 ar       
      47       24       25 ar       
      48       25       26 ar       
      49       25       52 1        
      50       26       27 ar       
      51       26       53 1        
      52       27       28 ar       
      53       27       54 1        
      54       28       29 ar       
      55       28       55 1        
      56       29       30 1        

