#        1GCZ_R01_S0001_C0000_L00005_S0001_C0033_G0010_E0001.mol2
#        Tue Jun  6 09:55:57 2017
#        Descriptor:     34     3    11    10     9    14
#        Energy - RMSD - RMSD MassCentre:     -52.9595    999.9999    999.9999
#        Receptor:       1  Surface Point:     1  Conformer:     0
#        Ligand:         5  Surface Point:     1  Conformer:    33
#        BUDE Formal Charge: 0
#        ATOM Count: 55
#        Heavy ATOM Count: 30
@<TRIPOS>MOLECULE
ZINC61464195_1GCZ_R01_S0001_C0000_L00005_S0001_C0033_G0010_E0001
 55 56 0 0 0
SMALL
USER_CHARGES
@<TRIPOS>ATOM
       1 C1        -0.6941    2.1629   -0.4490 C.3       1 <0>        -0.1456 
       2 C2        -0.6557    0.6634   -0.1683 C.3       1 <0>        -0.0579 
       3 C3         0.4367    0.0146   -1.0137 C.3       1 <0>        -0.1456 
       4 C4        -0.3619    0.4334    1.2947 C.ar      1 <0>        -0.0771 
       5 C5        -1.3110   -0.2498    2.0641 C.ar      1 <0>        -0.0943 
       6 C6        -1.0281   -0.5677    3.3978 C.ar      1 <0>        -0.0923 
       7 C7         0.2006   -0.2132    3.9675 C.ar      1 <0>        -0.1041 
       8 C8         1.1345    0.5158    3.2219 C.ar      1 <0>        -0.1315 
       9 C9         0.8302    0.8596    1.8995 C.ar      1 <0>        -0.0969 
      10 S1         0.5642   -0.6844    5.6345 S.3       1 <0>        -0.0341 
      11 C10        1.3741   -2.3142    5.6402 C.3       1 <0>        -0.1267 
      12 C11        1.6844   -2.7161    7.0623 C.2       1 <0>         0.4864 
      13 O1         0.9815   -3.4982    7.6299 O.2       1 <0>        -0.4815 
      14 O2         2.7566   -2.1915    7.6929 O.3       1 <0>        -0.3231 
      15 C12        3.5684   -1.2598    6.9733 C.3       1 <0>         0.0526 
      16 C13        4.7048   -0.7986    7.8541 C.2       1 <0>         0.5250 
      17 O3         5.8689   -0.9700    7.4955 O.2       1 <0>        -0.5082 
      18 N1         4.4481   -0.2072    9.0173 N.am      1 <0>        -0.5981 
      19 C14        5.5556    0.2412    9.8735 C.3       1 <0>         0.0731 
      20 C15        3.0569   -0.0021    9.4458 C.3       1 <0>         0.1010 
      21 C16        2.9106    1.3814   10.0326 C.2       1 <0>         0.4997 
      22 O4         2.4006    1.5275   11.1423 O.2       1 <0>        -0.5061 
      23 N2         3.3334    2.4413    9.3493 N.am      1 <0>        -0.6702 
      24 C17        3.1964    3.7378    9.8992 C.ar      1 <0>         0.1553 
      25 C18        2.2649    3.9713   10.9178 C.ar      1 <0>        -0.1106 
      26 C19        2.1377    5.2542   11.4639 C.ar      1 <0>        -0.0959 
      27 C20        2.9310    6.3028   10.9903 C.ar      1 <0>        -0.1208 
      28 C21        3.8533    6.0734    9.9624 C.ar      1 <0>        -0.0919 
      29 C22        3.9871    4.7894    9.4208 C.ar      1 <0>        -0.0639 
      30 Cl1        5.1294    4.5009    8.1403 Cl        1 <0>        -0.0632 
      31 H1         0.2730    2.6006   -0.2108 H         1 <0>         0.0596 
      32 H2        -0.9190    2.3288   -1.5005 H         1 <0>         0.0563 
      33 H3        -1.4637    2.6264    0.1647 H         1 <0>         0.0575 
      34 H4        -1.6184    0.2223   -0.4179 H         1 <0>         0.0784 
      35 H5         0.4547   -1.0561   -0.8221 H         1 <0>         0.0596 
      36 H6         1.4006    0.4467   -0.7532 H         1 <0>         0.0574 
      37 H7         0.2320    0.1918   -2.0676 H         1 <0>         0.0563 
      38 H8        -2.2575   -0.5521    1.6406 H         1 <0>         0.1285 
      39 H9        -1.7255   -1.0973    4.0300 H         1 <0>         0.1293 
      40 H10        2.0705    0.7986    3.6807 H         1 <0>         0.1227 
      41 H11        1.5466    1.4527    1.3505 H         1 <0>         0.1262 
      42 H12        0.7107   -3.0512    5.1923 H         1 <0>         0.1329 
      43 H13        2.2986   -2.2626    5.0688 H         1 <0>         0.1329 
      44 H14        2.9654   -0.4023    6.6816 H         1 <0>         0.1063 
      45 H15        3.9714   -1.7399    6.0841 H         1 <0>         0.1054 
      46 H16        6.1500    0.9797    9.3396 H         1 <0>         0.0686 
      47 H17        5.1539    0.6857   10.7817 H         1 <0>         0.0794 
      48 H18        6.1812   -0.6107   10.1319 H         1 <0>         0.0778 
      49 H19        2.3951   -0.1049    8.5882 H         1 <0>         0.1198 
      50 H20        2.7964   -0.7449   10.1969 H         1 <0>         0.1233 
      51 H21        3.7522    2.3201    8.4381 H         1 <0>         0.4142 
      52 H22        1.6487    3.1652   11.2879 H         1 <0>         0.1473 
      53 H23        1.4237    5.4306   12.2550 H         1 <0>         0.1337 
      54 H24        2.8353    7.2914   11.4146 H         1 <0>         0.1349 
      55 H25        4.4625    6.8842    9.5908 H         1 <0>         0.1385 
@<TRIPOS>BOND
       1        1        2 1        
       2        1       31 1        
       3        1       32 1        
       4        1       33 1        
       5        2        3 1        
       6        2        4 1        
       7        2       34 1        
       8        3       35 1        
       9        3       36 1        
      10        3       37 1        
      11        4        9 ar       
      12        4        5 ar       
      13        5        6 ar       
      14        5       38 1        
      15        6        7 ar       
      16        6       39 1        
      17        7        8 ar       
      18        7       10 1        
      19        8        9 ar       
      20        8       40 1        
      21        9       41 1        
      22       10       11 1        
      23       11       12 1        
      24       11       42 1        
      25       11       43 1        
      26       12       13 2        
      27       12       14 1        
      28       14       15 1        
      29       15       16 1        
      30       15       44 1        
      31       15       45 1        
      32       16       17 2        
      33       16       18 am       
      34       18       19 1        
      35       18       20 1        
      36       19       46 1        
      37       19       47 1        
      38       19       48 1        
      39       20       21 1        
      40       20       49 1        
      41       20       50 1        
      42       21       22 2        
      43       21       23 am       
      44       23       24 1        
      45       23       51 1        
      46       24       29 ar       
      47       24       25 ar       
      48       25       26 ar       
      49       25       52 1        
      50       26       27 ar       
      51       26       53 1        
      52       27       28 ar       
      53       27       54 1        
      54       28       29 ar       
      55       28       55 1        
      56       29       30 1        

