#        1GCZ_R01_S0001_C0000_L00005_S0001_C0033_G0010_E0001.mol2
#        Tue Jun  6 14:06:41 2017
#        Descriptor:     33     2     2     9     7    13
#        Energy - RMSD - RMSD MassCentre:     -63.3831    999.9999    999.9999
#        Receptor:       1  Surface Point:     1  Conformer:     0
#        Ligand:         5  Surface Point:     1  Conformer:    33
#        BUDE Formal Charge: 0
#        ATOM Count: 55
#        Heavy ATOM Count: 30
@<TRIPOS>MOLECULE
ZINC61464195_1GCZ_R01_S0001_C0000_L00005_S0001_C0033_G0010_E0001
 55 56 0 0 0
SMALL
USER_CHARGES
@<TRIPOS>ATOM
       1 C1         1.5714    0.2261   -1.9548 C.3       1 <0>        -0.1456 
       2 C2         0.1150    0.3720   -1.5229 C.3       1 <0>        -0.0579 
       3 C3        -0.6937   -0.8099   -2.0500 C.3       1 <0>        -0.1456 
       4 C4         0.0385    0.4007   -0.0153 C.ar      1 <0>        -0.0771 
       5 C5        -0.4909    1.5400    0.6021 C.ar      1 <0>        -0.0943 
       6 C6        -0.6689    1.5606    1.9905 C.ar      1 <0>        -0.0923 
       7 C7        -0.3273    0.4470    2.7673 C.ar      1 <0>        -0.1041 
       8 C8         0.2513   -0.6765    2.1652 C.ar      1 <0>        -0.1315 
       9 C9         0.4576   -0.6761    0.7806 C.ar      1 <0>        -0.0969 
      10 S1        -0.6235    0.4692    4.5122 S.3       1 <0>        -0.0341 
      11 C10       -2.2885   -0.1822    4.8521 C.3       1 <0>        -0.1267 
      12 C11       -2.5412   -0.1634    6.3407 C.2       1 <0>         0.4864 
      13 O1        -3.2073    0.7033    6.8236 O.2       1 <0>        -0.4815 
      14 O2        -2.0142   -1.1263    7.1266 O.3       1 <0>        -0.3231 
      15 C12       -1.2242   -2.1426    6.5038 C.3       1 <0>         0.0526 
      16 C13       -0.7350   -3.1122    7.5529 C.2       1 <0>         0.5250 
      17 O3        -1.0185   -4.3060    7.4662 O.2       1 <0>        -0.5082 
      18 N1         0.0020   -2.6764    8.5705 N.am      1 <0>        -0.5981 
      19 C14        0.4774   -3.6216    9.5909 C.3       1 <0>         0.0731 
      20 C15        0.3409   -1.2497    8.6740 C.3       1 <0>         0.1010 
      21 C16        1.7895   -1.1051    9.0746 C.2       1 <0>         0.4997 
      22 O4         2.0946   -0.3954   10.0318 O.2       1 <0>        -0.5061 
      23 N2         2.7349   -1.7454    8.3923 N.am      1 <0>        -0.6702 
      24 C17        4.0924   -1.6099    8.7678 C.ar      1 <0>         0.1553 
      25 C18        4.4995   -0.5147    9.5389 C.ar      1 <0>        -0.1106 
      26 C19        5.8424   -0.3886    9.9141 C.ar      1 <0>        -0.0959 
      27 C20        6.7781   -1.3469    9.5148 C.ar      1 <0>        -0.1208 
      28 C21        6.3745   -2.4353    8.7322 C.ar      1 <0>        -0.0919 
      29 C22        5.0305   -2.5670    8.3630 C.ar      1 <0>        -0.0639 
      30 Cl1        4.5255   -3.9161    7.3870 Cl        1 <0>        -0.0632 
      31 H1         1.9731   -0.7063   -1.5639 H         1 <0>         0.0596 
      32 H2         1.6277    0.2189   -3.0414 H         1 <0>         0.0563 
      33 H3         2.1496    1.0620   -1.5666 H         1 <0>         0.0575 
      34 H4        -0.2918    1.2981   -1.9237 H         1 <0>         0.0784 
      35 H5        -1.7340   -0.6984   -1.7521 H         1 <0>         0.0596 
      36 H6        -0.2946   -1.7343   -1.6374 H         1 <0>         0.0574 
      37 H7        -0.6276   -0.8383   -3.1357 H         1 <0>         0.0563 
      38 H8        -0.7812    2.4034    0.0217 H         1 <0>         0.1285 
      39 H9        -1.0775    2.4136    2.5120 H         1 <0>         0.1293 
      40 H10        0.5270   -1.5208    2.7797 H         1 <0>         0.1227 
      41 H11        0.9376   -1.5362    0.3377 H         1 <0>         0.1262 
      42 H12       -3.0301    0.4367    4.3512 H         1 <0>         0.1329 
      43 H13       -2.3607   -1.2041    4.4856 H         1 <0>         0.1329 
      44 H14       -0.3707   -1.6857    6.0070 H         1 <0>         0.1063 
      45 H15       -1.8281   -2.6751    5.7721 H         1 <0>         0.1054 
      46 H16        1.1108   -4.3720    9.1223 H         1 <0>         0.0686 
      47 H17        1.0482   -3.0837   10.3448 H         1 <0>         0.0794 
      48 H18       -0.3758   -4.1079   10.0594 H         1 <0>         0.0778 
      49 H19        0.1804   -0.7688    7.7112 H         1 <0>         0.1198 
      50 H20       -0.2922   -0.7808    9.4244 H         1 <0>         0.1233 
      51 H21        2.4832   -2.3280    7.6065 H         1 <0>         0.4142 
      52 H22        3.7813    0.2294    9.8503 H         1 <0>         0.1473 
      53 H23        6.1532    0.4532   10.5155 H         1 <0>         0.1337 
      54 H24        7.8132   -1.2512    9.8078 H         1 <0>         0.1349 
      55 H25        7.0975   -3.1733    8.4173 H         1 <0>         0.1385 
@<TRIPOS>BOND
       1        1        2 1        
       2        1       31 1        
       3        1       32 1        
       4        1       33 1        
       5        2        3 1        
       6        2        4 1        
       7        2       34 1        
       8        3       35 1        
       9        3       36 1        
      10        3       37 1        
      11        4        9 ar       
      12        4        5 ar       
      13        5        6 ar       
      14        5       38 1        
      15        6        7 ar       
      16        6       39 1        
      17        7        8 ar       
      18        7       10 1        
      19        8        9 ar       
      20        8       40 1        
      21        9       41 1        
      22       10       11 1        
      23       11       12 1        
      24       11       42 1        
      25       11       43 1        
      26       12       13 2        
      27       12       14 1        
      28       14       15 1        
      29       15       16 1        
      30       15       44 1        
      31       15       45 1        
      32       16       17 2        
      33       16       18 am       
      34       18       19 1        
      35       18       20 1        
      36       19       46 1        
      37       19       47 1        
      38       19       48 1        
      39       20       21 1        
      40       20       49 1        
      41       20       50 1        
      42       21       22 2        
      43       21       23 am       
      44       23       24 1        
      45       23       51 1        
      46       24       29 ar       
      47       24       25 ar       
      48       25       26 ar       
      49       25       52 1        
      50       26       27 ar       
      51       26       53 1        
      52       27       28 ar       
      53       27       54 1        
      54       28       29 ar       
      55       28       55 1        
      56       29       30 1        

