#        1GCZ_R01_S0001_C0000_L00005_S0001_C0034_G0010_E0001.mol2
#        Tue Jun  6 09:55:58 2017
#        Descriptor:     30    13    28    12     9    15
#        Energy - RMSD - RMSD MassCentre:     -55.8568    999.9999    999.9999
#        Receptor:       1  Surface Point:     1  Conformer:     0
#        Ligand:         5  Surface Point:     1  Conformer:    34
#        BUDE Formal Charge: 0
#        ATOM Count: 55
#        Heavy ATOM Count: 30
@<TRIPOS>MOLECULE
ZINC61464195_1GCZ_R01_S0001_C0000_L00005_S0001_C0034_G0010_E0001
 55 56 0 0 0
SMALL
USER_CHARGES
@<TRIPOS>ATOM
       1 C1        11.6138    1.1615    5.9256 C.3       1 <0>        -0.1456 
       2 C2        11.2126   -0.2884    6.1816 C.3       1 <0>        -0.0579 
       3 C3        11.9861   -0.8268    7.3818 C.3       1 <0>        -0.1456 
       4 C4         9.7315   -0.3570    6.4666 C.ar      1 <0>        -0.0771 
       5 C5         8.8972    0.6051    5.8850 C.ar      1 <0>        -0.0943 
       6 C6         7.5097    0.5129    6.0465 C.ar      1 <0>        -0.0923 
       7 C7         6.9481   -0.5388    6.7804 C.ar      1 <0>        -0.1041 
       8 C8         7.7768   -1.4757    7.4092 C.ar      1 <0>        -0.1315 
       9 C9         9.1649   -1.3569    7.2712 C.ar      1 <0>        -0.0969 
      10 S1         5.1884   -0.6743    6.9152 S.3       1 <0>        -0.0341 
      11 C10        4.5526   -1.6904    5.5456 C.3       1 <0>        -0.1267 
      12 C11        3.0514   -1.8060    5.6607 C.2       1 <0>         0.4864 
      13 O1         2.5603   -2.7992    6.1081 O.2       1 <0>        -0.4815 
      14 O2         2.2636   -0.7864    5.2577 O.3       1 <0>        -0.3231 
      15 C12        0.8478   -0.9417    5.3860 C.3       1 <0>         0.0526 
      16 C13        0.1582    0.3035    4.8820 C.2       1 <0>         0.5250 
      17 O3        -0.6537    0.2264    3.9611 O.2       1 <0>        -0.5082 
      18 N1         0.4280    1.4834    5.4329 N.am      1 <0>        -0.5981 
      19 C14       -0.2443    2.6946    4.9411 C.3       1 <0>         0.0731 
      20 C15        1.3980    1.5756    6.5336 C.3       1 <0>         0.1010 
      21 C16        0.8642    2.5046    7.5975 C.2       1 <0>         0.4997 
      22 O4         1.5603    3.4308    8.0103 O.2       1 <0>        -0.5061 
      23 N2        -0.3586    2.3208    8.0876 N.am      1 <0>        -0.6702 
      24 C17       -0.8589    3.1915    9.0846 C.ar      1 <0>         0.1553 
      25 C18       -1.5674    2.6732   10.1751 C.ar      1 <0>        -0.1106 
      26 C19       -2.0544    3.5377   11.1628 C.ar      1 <0>        -0.0959 
      27 C20       -1.8428    4.9154   11.0595 C.ar      1 <0>        -0.1208 
      28 C21       -1.1459    5.4359    9.9624 C.ar      1 <0>        -0.0919 
      29 C22       -0.6515    4.5719    8.9781 C.ar      1 <0>        -0.0639 
      30 Cl1        0.2115    5.2152    7.6110 Cl        1 <0>        -0.0632 
      31 H1        11.3970    1.7584    6.8089 H         1 <0>         0.0596 
      32 H2        12.6786    1.2092    5.7071 H         1 <0>         0.0563 
      33 H3        11.0514    1.5485    5.0784 H         1 <0>         0.0575 
      34 H4        11.4405   -0.8889    5.3034 H         1 <0>         0.0784 
      35 H5        11.7084   -1.8643    7.5556 H         1 <0>         0.0596 
      36 H6        11.7465   -0.2342    8.2622 H         1 <0>         0.0574 
      37 H7        13.0537   -0.7649    7.1817 H         1 <0>         0.0563 
      38 H8         9.3058    1.4137    5.2972 H         1 <0>         0.1285 
      39 H9         6.8250    1.2273    5.6138 H         1 <0>         0.1293 
      40 H10        7.3300   -2.2707    7.9876 H         1 <0>         0.1227 
      41 H11        9.7901   -2.0668    7.7922 H         1 <0>         0.1262 
      42 H12        4.8081   -1.2226    4.5971 H         1 <0>         0.1329 
      43 H13        4.9967   -2.6825    5.5927 H         1 <0>         0.1329 
      44 H14        0.5929   -1.0985    6.4321 H         1 <0>         0.1063 
      45 H15        0.5216   -1.7985    4.8002 H         1 <0>         0.1054 
      46 H16       -1.3192    2.5920    5.0754 H         1 <0>         0.0686 
      47 H17        0.1109    3.5580    5.4998 H         1 <0>         0.0794 
      48 H18       -0.0215    2.8286    3.8846 H         1 <0>         0.0778 
      49 H19        1.5563    0.5873    6.9603 H         1 <0>         0.1198 
      50 H20        2.3412    1.9625    6.1533 H         1 <0>         0.1233 
      51 H21       -0.9294    1.5600    7.7479 H         1 <0>         0.4142 
      52 H22       -1.7346    1.6097   10.2605 H         1 <0>         0.1473 
      53 H23       -2.5944    3.1352   12.0073 H         1 <0>         0.1337 
      54 H24       -2.2151    5.5814   11.8236 H         1 <0>         0.1349 
      55 H25       -0.9871    6.5008    9.8778 H         1 <0>         0.1385 
@<TRIPOS>BOND
       1        1        2 1        
       2        1       31 1        
       3        1       32 1        
       4        1       33 1        
       5        2        3 1        
       6        2        4 1        
       7        2       34 1        
       8        3       35 1        
       9        3       36 1        
      10        3       37 1        
      11        4        9 ar       
      12        4        5 ar       
      13        5        6 ar       
      14        5       38 1        
      15        6        7 ar       
      16        6       39 1        
      17        7        8 ar       
      18        7       10 1        
      19        8        9 ar       
      20        8       40 1        
      21        9       41 1        
      22       10       11 1        
      23       11       12 1        
      24       11       42 1        
      25       11       43 1        
      26       12       13 2        
      27       12       14 1        
      28       14       15 1        
      29       15       16 1        
      30       15       44 1        
      31       15       45 1        
      32       16       17 2        
      33       16       18 am       
      34       18       19 1        
      35       18       20 1        
      36       19       46 1        
      37       19       47 1        
      38       19       48 1        
      39       20       21 1        
      40       20       49 1        
      41       20       50 1        
      42       21       22 2        
      43       21       23 am       
      44       23       24 1        
      45       23       51 1        
      46       24       29 ar       
      47       24       25 ar       
      48       25       26 ar       
      49       25       52 1        
      50       26       27 ar       
      51       26       53 1        
      52       27       28 ar       
      53       27       54 1        
      54       28       29 ar       
      55       28       55 1        
      56       29       30 1        

