#        1GCZ_R01_S0001_C0000_L00005_S0001_C0034_G0010_E0001.mol2
#        Tue Jun  6 14:06:43 2017
#        Descriptor:     15    31    29    15     8    13
#        Energy - RMSD - RMSD MassCentre:     -53.4180    999.9999    999.9999
#        Receptor:       1  Surface Point:     1  Conformer:     0
#        Ligand:         5  Surface Point:     1  Conformer:    34
#        BUDE Formal Charge: 0
#        ATOM Count: 55
#        Heavy ATOM Count: 30
@<TRIPOS>MOLECULE
ZINC61464195_1GCZ_R01_S0001_C0000_L00005_S0001_C0034_G0010_E0001
 55 56 0 0 0
SMALL
USER_CHARGES
@<TRIPOS>ATOM
       1 C1        -0.5047    1.2692    3.8959 C.3       1 <0>        -0.1456 
       2 C2        -0.3351    0.6796    5.2931 C.3       1 <0>        -0.0579 
       3 C3        -1.1693   -0.5925    5.4141 C.3       1 <0>        -0.1456 
       4 C4         1.1198    0.3502    5.5262 C.ar      1 <0>        -0.0771 
       5 C5         2.0888    1.1152    4.8660 C.ar      1 <0>        -0.0943 
       6 C6         3.4461    0.9030    5.1355 C.ar      1 <0>        -0.0923 
       7 C7         3.8429   -0.0649    6.0659 C.ar      1 <0>        -0.1041 
       8 C8         2.8840   -0.8702    6.6919 C.ar      1 <0>        -0.1315 
       9 C9         1.5307   -0.6749    6.3915 C.ar      1 <0>        -0.0969 
      10 S1         5.5605   -0.2701    6.4414 S.3       1 <0>        -0.0341 
      11 C10        6.0105    0.8157    7.8310 C.3       1 <0>        -0.1267 
      12 C11        7.4757    0.6405    8.1512 C.2       1 <0>         0.4864 
      13 O1         7.8088   -0.0334    9.0801 O.2       1 <0>        -0.4815 
      14 O2         8.4101    1.2460    7.3877 O.3       1 <0>        -0.3231 
      15 C12        9.7849    1.0511    7.7297 C.3       1 <0>         0.0526 
      16 C13       10.6568    1.8087    6.7572 C.2       1 <0>         0.5250 
      17 O3        11.4348    2.6675    7.1695 O.2       1 <0>        -0.5082 
      18 N1        10.5841    1.5480    5.4551 N.am      1 <0>        -0.5981 
      19 C14       11.4336    2.2864    4.5097 C.3       1 <0>         0.0731 
      20 C15        9.6544    0.5215    4.9622 C.3       1 <0>         0.1010 
      21 C16       10.3416   -0.3154    3.9099 C.2       1 <0>         0.4997 
      22 O4         9.8061   -0.4888    2.8163 O.2       1 <0>        -0.5061 
      23 N2        11.5257   -0.8643    4.1661 N.am      1 <0>        -0.6702 
      24 C17       12.1698   -1.6484    3.1799 C.ar      1 <0>         0.1553 
      25 C18       12.8007   -2.8454    3.5393 C.ar      1 <0>        -0.1106 
      26 C19       13.4305   -3.6216    2.5591 C.ar      1 <0>        -0.0959 
      27 C20       13.4385   -3.2017    1.2259 C.ar      1 <0>        -0.1208 
      28 C21       12.8195   -1.9981    0.8677 C.ar      1 <0>        -0.0919 
      29 C22       12.1824   -1.2249    1.8456 C.ar      1 <0>        -0.0639 
      30 Cl1       11.4155    0.2736    1.4053 Cl        1 <0>        -0.0632 
      31 H1        -0.1852    0.5402    3.1541 H         1 <0>         0.0596 
      32 H2        -1.5511    1.5188    3.7329 H         1 <0>         0.0563 
      33 H3         0.1015    2.1683    3.8063 H         1 <0>         0.0575 
      34 H4        -0.6660    1.4030    6.0353 H         1 <0>         0.0784 
      35 H5        -1.0573   -1.0051    6.4146 H         1 <0>         0.0596 
      36 H6        -0.8281   -1.3202    4.6807 H         1 <0>         0.0574 
      37 H7        -2.2161   -0.3575    5.2329 H         1 <0>         0.0563 
      38 H8         1.8062    1.8818    4.1598 H         1 <0>         0.1285 
      39 H9         4.2299    1.4703    4.6557 H         1 <0>         0.1293 
      40 H10        3.2063   -1.6255    7.3933 H         1 <0>         0.1227 
      41 H11        0.8073   -1.3285    6.8560 H         1 <0>         0.1262 
      42 H12        5.8207    1.8519    7.5587 H         1 <0>         0.1329 
      43 H13        5.4155    0.5545    8.7036 H         1 <0>         0.1329 
      44 H14       10.0245   -0.0092    7.6808 H         1 <0>         0.1063 
      45 H15        9.9641    1.4179    8.7382 H         1 <0>         0.1054 
      46 H16       12.4802    2.1060    4.7462 H         1 <0>         0.0686 
      47 H17       11.2265    1.9482    3.4966 H         1 <0>         0.0794 
      48 H18       11.2219    3.3508    4.5879 H         1 <0>         0.0778 
      49 H19        9.3468   -0.1153    5.7891 H         1 <0>         0.1198 
      50 H20        8.7798    1.0030    4.5296 H         1 <0>         0.1233 
      51 H21       11.9646   -0.7211    5.0645 H         1 <0>         0.4142 
      52 H22       12.7983   -3.1750    4.5677 H         1 <0>         0.1473 
      53 H23       13.9101   -4.5485    2.8370 H         1 <0>         0.1337 
      54 H24       13.9209   -3.8027    0.4695 H         1 <0>         0.1349 
      55 H25       12.8303   -1.6690   -0.1608 H         1 <0>         0.1385 
@<TRIPOS>BOND
       1        1        2 1        
       2        1       31 1        
       3        1       32 1        
       4        1       33 1        
       5        2        3 1        
       6        2        4 1        
       7        2       34 1        
       8        3       35 1        
       9        3       36 1        
      10        3       37 1        
      11        4        9 ar       
      12        4        5 ar       
      13        5        6 ar       
      14        5       38 1        
      15        6        7 ar       
      16        6       39 1        
      17        7        8 ar       
      18        7       10 1        
      19        8        9 ar       
      20        8       40 1        
      21        9       41 1        
      22       10       11 1        
      23       11       12 1        
      24       11       42 1        
      25       11       43 1        
      26       12       13 2        
      27       12       14 1        
      28       14       15 1        
      29       15       16 1        
      30       15       44 1        
      31       15       45 1        
      32       16       17 2        
      33       16       18 am       
      34       18       19 1        
      35       18       20 1        
      36       19       46 1        
      37       19       47 1        
      38       19       48 1        
      39       20       21 1        
      40       20       49 1        
      41       20       50 1        
      42       21       22 2        
      43       21       23 am       
      44       23       24 1        
      45       23       51 1        
      46       24       29 ar       
      47       24       25 ar       
      48       25       26 ar       
      49       25       52 1        
      50       26       27 ar       
      51       26       53 1        
      52       27       28 ar       
      53       27       54 1        
      54       28       29 ar       
      55       28       55 1        
      56       29       30 1        

