#        1GCZ_R01_S0001_C0000_L00005_S0001_C0035_G0010_E0001.mol2
#        Tue Jun  6 09:55:58 2017
#        Descriptor:     11     7    10    11     9    15
#        Energy - RMSD - RMSD MassCentre:     -53.7006    999.9999    999.9999
#        Receptor:       1  Surface Point:     1  Conformer:     0
#        Ligand:         5  Surface Point:     1  Conformer:    35
#        BUDE Formal Charge: 0
#        ATOM Count: 55
#        Heavy ATOM Count: 30
@<TRIPOS>MOLECULE
ZINC61464195_1GCZ_R01_S0001_C0000_L00005_S0001_C0035_G0010_E0001
 55 56 0 0 0
SMALL
USER_CHARGES
@<TRIPOS>ATOM
       1 C1         9.1765    1.1034    5.1529 C.3       1 <0>        -0.1456 
       2 C2         8.6968   -0.1517    5.8763 C.3       1 <0>        -0.0579 
       3 C3         9.4398   -0.2912    7.2018 C.3       1 <0>        -0.1456 
       4 C4         7.2141   -0.0436    6.1403 C.ar      1 <0>        -0.0771 
       5 C5         6.4336    0.7066    5.2528 C.ar      1 <0>        -0.0943 
       6 C6         5.0431    0.7458    5.4104 C.ar      1 <0>        -0.0923 
       7 C7         4.4250    0.0347    6.4459 C.ar      1 <0>        -0.1041 
       8 C8         5.2014   -0.6753    7.3693 C.ar      1 <0>        -0.1315 
       9 C9         6.5939   -0.6818    7.2250 C.ar      1 <0>        -0.0969 
      10 S1         2.6606    0.0434    6.5861 S.3       1 <0>        -0.0341 
      11 C10        1.9701   -1.3419    5.6289 C.3       1 <0>        -0.1267 
      12 C11        0.4649   -1.3345    5.7485 C.2       1 <0>         0.4864 
      13 O1        -0.2038   -0.8984    4.8592 O.2       1 <0>        -0.4815 
      14 O2        -0.1258   -1.8208    6.8607 O.3       1 <0>        -0.3231 
      15 C12       -1.5539   -1.7927    6.9285 C.3       1 <0>         0.0526 
      16 C13       -2.0305   -0.3603    6.8948 C.2       1 <0>         0.5250 
      17 O3        -2.7959    0.0120    6.0068 O.2       1 <0>        -0.5082 
      18 N1        -1.6233    0.4990    7.8245 N.am      1 <0>        -0.5981 
      19 C14       -0.7086    0.0540    8.8858 C.3       1 <0>         0.0731 
      20 C15       -2.0882    1.8931    7.7901 C.3       1 <0>         0.1010 
      21 C16       -0.9300    2.8163    8.0844 C.2       1 <0>         0.4997 
      22 O4        -1.0349    3.6743    8.9593 O.2       1 <0>        -0.5061 
      23 N2         0.2030    2.7011    7.3972 N.am      1 <0>        -0.6702 
      24 C17        1.2883    3.5662    7.6730 C.ar      1 <0>         0.1553 
      25 C18        2.0269    4.1200    6.6206 C.ar      1 <0>        -0.1106 
      26 C19        3.0954    4.9810    6.8980 C.ar      1 <0>        -0.0959 
      27 C20        3.4317    5.2826    8.2207 C.ar      1 <0>        -0.1208 
      28 C21        2.7022    4.7185    9.2741 C.ar      1 <0>        -0.0919 
      29 C22        1.6285    3.8635    8.9980 C.ar      1 <0>        -0.0639 
      30 Cl1        0.7217    3.1573   10.3044 Cl        1 <0>        -0.0632 
      31 H1         8.9926    1.9744    5.7785 H         1 <0>         0.0596 
      32 H2        10.2423    1.0197    4.9508 H         1 <0>         0.0563 
      33 H3         8.6360    1.2095    4.2146 H         1 <0>         0.0575 
      34 H4         8.8914   -1.0247    5.2570 H         1 <0>         0.0784 
      35 H5         9.1059   -1.1930    7.7108 H         1 <0>         0.0596 
      36 H6         9.2330    0.5759    7.8257 H         1 <0>         0.0574 
      37 H7        10.5092   -0.3557    7.0124 H         1 <0>         0.0563 
      38 H8         6.8857    1.2464    4.4339 H         1 <0>         0.1285 
      39 H9         4.3984    1.3059    4.7493 H         1 <0>         0.1293 
      40 H10        4.7119   -1.2038    8.1740 H         1 <0>         0.1227 
      41 H11        7.1794   -1.2048    7.9665 H         1 <0>         0.1262 
      42 H12        2.2507   -1.2365    4.5829 H         1 <0>         0.1329 
      43 H13        2.3594   -2.2811    6.0165 H         1 <0>         0.1329 
      44 H14       -1.8829   -2.2621    7.8534 H         1 <0>         0.1063 
      45 H15       -1.9687   -2.3324    6.0797 H         1 <0>         0.1054 
      46 H16        0.2201   -0.2959    8.4399 H         1 <0>         0.0686 
      47 H17       -0.4995    0.8855    9.5556 H         1 <0>         0.0794 
      48 H18       -1.1708   -0.7563    9.4458 H         1 <0>         0.0778 
      49 H19       -2.4894    2.1168    6.8039 H         1 <0>         0.1198 
      50 H20       -2.8647    2.0344    8.5391 H         1 <0>         0.1233 
      51 H21        0.2880    1.9961    6.6790 H         1 <0>         0.4142 
      52 H22        1.7722    3.8907    5.5964 H         1 <0>         0.1473 
      53 H23        3.6593    5.4133    6.0845 H         1 <0>         0.1337 
      54 H24        4.2535    5.9499    8.4340 H         1 <0>         0.1349 
      55 H25        2.9649    4.9453   10.2968 H         1 <0>         0.1385 
@<TRIPOS>BOND
       1        1        2 1        
       2        1       31 1        
       3        1       32 1        
       4        1       33 1        
       5        2        3 1        
       6        2        4 1        
       7        2       34 1        
       8        3       35 1        
       9        3       36 1        
      10        3       37 1        
      11        4        9 ar       
      12        4        5 ar       
      13        5        6 ar       
      14        5       38 1        
      15        6        7 ar       
      16        6       39 1        
      17        7        8 ar       
      18        7       10 1        
      19        8        9 ar       
      20        8       40 1        
      21        9       41 1        
      22       10       11 1        
      23       11       12 1        
      24       11       42 1        
      25       11       43 1        
      26       12       13 2        
      27       12       14 1        
      28       14       15 1        
      29       15       16 1        
      30       15       44 1        
      31       15       45 1        
      32       16       17 2        
      33       16       18 am       
      34       18       19 1        
      35       18       20 1        
      36       19       46 1        
      37       19       47 1        
      38       19       48 1        
      39       20       21 1        
      40       20       49 1        
      41       20       50 1        
      42       21       22 2        
      43       21       23 am       
      44       23       24 1        
      45       23       51 1        
      46       24       29 ar       
      47       24       25 ar       
      48       25       26 ar       
      49       25       52 1        
      50       26       27 ar       
      51       26       53 1        
      52       27       28 ar       
      53       27       54 1        
      54       28       29 ar       
      55       28       55 1        
      56       29       30 1        

