#        1GCZ_R01_S0001_C0000_L00005_S0001_C0035_G0010_E0001.mol2
#        Tue Jun  6 14:06:45 2017
#        Descriptor:      8     8    13    11     9    15
#        Energy - RMSD - RMSD MassCentre:     -54.6141    999.9999    999.9999
#        Receptor:       1  Surface Point:     1  Conformer:     0
#        Ligand:         5  Surface Point:     1  Conformer:    35
#        BUDE Formal Charge: 0
#        ATOM Count: 55
#        Heavy ATOM Count: 30
@<TRIPOS>MOLECULE
ZINC61464195_1GCZ_R01_S0001_C0000_L00005_S0001_C0035_G0010_E0001
 55 56 0 0 0
SMALL
USER_CHARGES
@<TRIPOS>ATOM
       1 C1         9.2552    1.5465    5.5356 C.3       1 <0>        -0.1456 
       2 C2         8.7667    0.1636    5.9569 C.3       1 <0>        -0.0579 
       3 C3         9.4473   -0.2418    7.2611 C.3       1 <0>        -0.1456 
       4 C4         7.2711    0.1998    6.1608 C.ar      1 <0>        -0.0771 
       5 C5         6.5194    1.1107    5.4093 C.ar      1 <0>        -0.0943 
       6 C6         5.1224    1.1026    5.4997 C.ar      1 <0>        -0.0923 
       7 C7         4.4695    0.1854    6.3317 C.ar      1 <0>        -0.1041 
       8 C8         5.2145   -0.6939    7.1264 C.ar      1 <0>        -0.1315 
       9 C9         6.6122   -0.6565    7.0559 C.ar      1 <0>        -0.0969 
      10 S1         2.7005    0.1474    6.3796 S.3       1 <0>        -0.0341 
      11 C10        2.0854   -1.0148    5.1213 C.3       1 <0>        -0.1267 
      12 C11        0.5763   -1.0472    5.1621 C.2       1 <0>         0.4864 
      13 O1        -0.0573   -0.4419    4.3495 O.2       1 <0>        -0.4815 
      14 O2        -0.0575   -1.7603    6.1171 O.3       1 <0>        -0.3231 
      15 C12       -1.4875   -1.7610    6.1155 C.3       1 <0>         0.0526 
      16 C13       -1.9909   -0.3577    6.3554 C.2       1 <0>         0.5250 
      17 O3        -2.7198    0.1839    5.5258 O.2       1 <0>        -0.5082 
      18 N1        -1.6466    0.2929    7.4630 N.am      1 <0>        -0.5981 
      19 C14       -0.7756   -0.3544    8.4545 C.3       1 <0>         0.0731 
      20 C15       -2.1375    1.6590    7.6949 C.3       1 <0>         0.1010 
      21 C16       -1.0139    2.5119    8.2338 C.2       1 <0>         0.4997 
      22 O4        -1.1784    3.1677    9.2612 O.2       1 <0>        -0.5061 
      23 N2         0.1531    2.5535    7.5969 N.am      1 <0>        -0.6702 
      24 C17        1.2059    3.3527    8.1019 C.ar      1 <0>         0.1553 
      25 C18        1.9832    4.1209    7.2270 C.ar      1 <0>        -0.1106 
      26 C19        3.0193    4.9156    7.7318 C.ar      1 <0>        -0.0959 
      27 C20        3.2851    4.9382    9.1038 C.ar      1 <0>        -0.1208 
      28 C21        2.5170    4.1599    9.9781 C.ar      1 <0>        -0.0919 
      29 C22        1.4755    3.3708    9.4756 C.ar      1 <0>        -0.0639 
      30 Cl1        0.5212    2.3990   10.5584 Cl        1 <0>        -0.0632 
      31 H1         9.0237    2.2661    6.3181 H         1 <0>         0.0596 
      32 H2        10.3311    1.5172    5.3757 H         1 <0>         0.0563 
      33 H3         8.7587    1.8404    4.6131 H         1 <0>         0.0575 
      34 H4         9.0088   -0.5593    5.1807 H         1 <0>         0.0784 
      35 H5         9.1076   -1.2331    7.5538 H         1 <0>         0.0596 
      36 H6         9.1931    0.4741    8.0399 H         1 <0>         0.0574 
      37 H7        10.5258   -0.2550    7.1177 H         1 <0>         0.0563 
      38 H8         6.9995    1.8138    4.7448 H         1 <0>         0.1285 
      39 H9         4.4992    1.7819    4.9370 H         1 <0>         0.1293 
      40 H10        4.6975   -1.3832    7.7775 H         1 <0>         0.1227 
      41 H11        7.1717   -1.3168    7.7019 H         1 <0>         0.1262 
      42 H12        2.4141   -0.6909    4.1359 H         1 <0>         0.1329 
      43 H13        2.4745   -2.0102    5.3250 H         1 <0>         0.1329 
      44 H14       -1.8512   -2.4160    6.9047 H         1 <0>         0.1063 
      45 H15       -1.8497   -2.1159    5.1530 H         1 <0>         0.1054 
      46 H16        0.1806   -0.5947    7.9942 H         1 <0>         0.0686 
      47 H17       -0.6160    0.3212    9.2922 H         1 <0>         0.0794 
      48 H18       -1.2477   -1.2681    8.8095 H         1 <0>         0.0778 
      49 H19       -2.4951    2.0794    6.7573 H         1 <0>         0.1198 
      50 H20       -2.9521    1.6336    8.4159 H         1 <0>         0.1233 
      51 H21        0.2871    2.0145    6.7534 H         1 <0>         0.4142 
      52 H22        1.7831    4.1075    6.1657 H         1 <0>         0.1473 
      53 H23        3.6131    5.5134    7.0560 H         1 <0>         0.1337 
      54 H24        4.0819    5.5545    9.4931 H         1 <0>         0.1349 
      55 H25        2.7253    4.1712   11.0377 H         1 <0>         0.1385 
@<TRIPOS>BOND
       1        1        2 1        
       2        1       31 1        
       3        1       32 1        
       4        1       33 1        
       5        2        3 1        
       6        2        4 1        
       7        2       34 1        
       8        3       35 1        
       9        3       36 1        
      10        3       37 1        
      11        4        9 ar       
      12        4        5 ar       
      13        5        6 ar       
      14        5       38 1        
      15        6        7 ar       
      16        6       39 1        
      17        7        8 ar       
      18        7       10 1        
      19        8        9 ar       
      20        8       40 1        
      21        9       41 1        
      22       10       11 1        
      23       11       12 1        
      24       11       42 1        
      25       11       43 1        
      26       12       13 2        
      27       12       14 1        
      28       14       15 1        
      29       15       16 1        
      30       15       44 1        
      31       15       45 1        
      32       16       17 2        
      33       16       18 am       
      34       18       19 1        
      35       18       20 1        
      36       19       46 1        
      37       19       47 1        
      38       19       48 1        
      39       20       21 1        
      40       20       49 1        
      41       20       50 1        
      42       21       22 2        
      43       21       23 am       
      44       23       24 1        
      45       23       51 1        
      46       24       29 ar       
      47       24       25 ar       
      48       25       26 ar       
      49       25       52 1        
      50       26       27 ar       
      51       26       53 1        
      52       27       28 ar       
      53       27       54 1        
      54       28       29 ar       
      55       28       55 1        
      56       29       30 1        

