#        1GCZ_R01_S0001_C0000_L00005_S0001_C0036_G0010_E0001.mol2
#        Tue Jun  6 09:55:59 2017
#        Descriptor:     26    15    21    11     8    11
#        Energy - RMSD - RMSD MassCentre:     -71.5837    999.9999    999.9999
#        Receptor:       1  Surface Point:     1  Conformer:     0
#        Ligand:         5  Surface Point:     1  Conformer:    36
#        BUDE Formal Charge: 0
#        ATOM Count: 55
#        Heavy ATOM Count: 30
@<TRIPOS>MOLECULE
ZINC61464195_1GCZ_R01_S0001_C0000_L00005_S0001_C0036_G0010_E0001
 55 56 0 0 0
SMALL
USER_CHARGES
@<TRIPOS>ATOM
       1 C1        -1.5184    0.8962   -2.8755 C.3       1 <0>        -0.1456 
       2 C2        -0.4287   -0.0255   -2.3353 C.3       1 <0>        -0.0579 
       3 C3         0.9334    0.4499   -2.8328 C.3       1 <0>        -0.1456 
       4 C4        -0.4500    0.0022   -0.8259 C.ar      1 <0>        -0.0771 
       5 C5        -0.6962   -1.1944   -0.1424 C.ar      1 <0>        -0.0943 
       6 C6        -0.6245   -1.2254    1.2554 C.ar      1 <0>        -0.0923 
       7 C7        -0.3017   -0.0695    1.9762 C.ar      1 <0>        -0.1041 
       8 C8        -0.1056    1.1433    1.3049 C.ar      1 <0>        -0.1315 
       9 C9        -0.2127    1.1733   -0.0907 C.ar      1 <0>        -0.0969 
      10 S1        -0.1500   -0.1466    3.7380 S.3       1 <0>        -0.0341 
      11 C10        1.5709   -0.5395    4.1810 C.3       1 <0>        -0.1267 
      12 C11        1.7003   -0.6053    5.6841 C.2       1 <0>         0.4864 
      13 O1         1.7282   -1.6646    6.2363 O.2       1 <0>        -0.4815 
      14 O2         1.7847    0.5333    6.4043 O.3       1 <0>        -0.3231 
      15 C12        1.7471    1.7771    5.6996 C.3       1 <0>         0.0526 
      16 C13        2.9429    1.8712    4.7825 C.2       1 <0>         0.5250 
      17 O3         2.7793    2.0194    3.5724 O.2       1 <0>        -0.5082 
      18 N1         4.1730    1.7939    5.2821 N.am      1 <0>        -0.5981 
      19 C14        4.3686    1.6169    6.7282 C.3       1 <0>         0.0731 
      20 C15        5.3361    1.8857    4.3878 C.3       1 <0>         0.1010 
      21 C16        6.3597    0.8498    4.7869 C.2       1 <0>         0.4997 
      22 O4         7.5276    1.1828    4.9815 O.2       1 <0>        -0.5061 
      23 N2         5.9977   -0.4223    4.9278 N.am      1 <0>        -0.6702 
      24 C17        6.9569   -1.3931    5.3018 C.ar      1 <0>         0.1553 
      25 C18        6.9706   -2.6429    4.6714 C.ar      1 <0>        -0.1106 
      26 C19        7.9258   -3.5977    5.0397 C.ar      1 <0>        -0.0959 
      27 C20        8.8597   -3.3104    6.0392 C.ar      1 <0>        -0.1208 
      28 C21        8.8383   -2.0657    6.6797 C.ar      1 <0>        -0.0919 
      29 C22        7.8885   -1.1071    6.3070 C.ar      1 <0>        -0.0639 
      30 Cl1        7.8561    0.4397    7.1033 Cl        1 <0>        -0.0632 
      31 H1        -1.3314    1.9138   -2.5391 H         1 <0>         0.0596 
      32 H2        -1.5117    0.8661   -3.9631 H         1 <0>         0.0563 
      33 H3        -2.4876    0.5646   -2.5088 H         1 <0>         0.0575 
      34 H4        -0.6076   -1.0412   -2.6814 H         1 <0>         0.0784 
      35 H5         1.7082   -0.2152   -2.4572 H         1 <0>         0.0596 
      36 H6         1.1172    1.4606   -2.4743 H         1 <0>         0.0574 
      37 H7         0.9443    0.4427   -3.9206 H         1 <0>         0.0563 
      38 H8        -0.9264   -2.1037   -0.6777 H         1 <0>         0.1285 
      39 H9        -0.8013   -2.1245    1.8271 H         1 <0>         0.1293 
      40 H10        0.1242    2.0308    1.8755 H         1 <0>         0.1227 
      41 H11       -0.0937    2.1239   -0.5894 H         1 <0>         0.1262 
      42 H12        1.8464   -1.5004    3.7515 H         1 <0>         0.1329 
      43 H13        2.2313    0.2341    3.7943 H         1 <0>         0.1329 
      44 H14        1.7716    2.5991    6.4121 H         1 <0>         0.1063 
      45 H15        0.8339    1.8337    5.1108 H         1 <0>         0.1054 
      46 H16        3.9076    0.6833    7.0442 H         1 <0>         0.0686 
      47 H17        5.4336    1.5892    6.9487 H         1 <0>         0.0794 
      48 H18        3.9089    2.4473    7.2601 H         1 <0>         0.0778 
      49 H19        5.0194    1.7072    3.3623 H         1 <0>         0.1198 
      50 H20        5.7748    2.8784    4.4650 H         1 <0>         0.1233 
      51 H21        5.0384   -0.6947    4.7679 H         1 <0>         0.4142 
      52 H22        6.2514   -2.8711    3.8985 H         1 <0>         0.1473 
      53 H23        7.9395   -4.5587    4.5468 H         1 <0>         0.1337 
      54 H24        9.5988   -4.0458    6.3201 H         1 <0>         0.1349 
      55 H25        9.5549   -1.8445    7.4568 H         1 <0>         0.1385 
@<TRIPOS>BOND
       1        1        2 1        
       2        1       31 1        
       3        1       32 1        
       4        1       33 1        
       5        2        3 1        
       6        2        4 1        
       7        2       34 1        
       8        3       35 1        
       9        3       36 1        
      10        3       37 1        
      11        4        9 ar       
      12        4        5 ar       
      13        5        6 ar       
      14        5       38 1        
      15        6        7 ar       
      16        6       39 1        
      17        7        8 ar       
      18        7       10 1        
      19        8        9 ar       
      20        8       40 1        
      21        9       41 1        
      22       10       11 1        
      23       11       12 1        
      24       11       42 1        
      25       11       43 1        
      26       12       13 2        
      27       12       14 1        
      28       14       15 1        
      29       15       16 1        
      30       15       44 1        
      31       15       45 1        
      32       16       17 2        
      33       16       18 am       
      34       18       19 1        
      35       18       20 1        
      36       19       46 1        
      37       19       47 1        
      38       19       48 1        
      39       20       21 1        
      40       20       49 1        
      41       20       50 1        
      42       21       22 2        
      43       21       23 am       
      44       23       24 1        
      45       23       51 1        
      46       24       29 ar       
      47       24       25 ar       
      48       25       26 ar       
      49       25       52 1        
      50       26       27 ar       
      51       26       53 1        
      52       27       28 ar       
      53       27       54 1        
      54       28       29 ar       
      55       28       55 1        
      56       29       30 1        

