#        1GCZ_R01_S0001_C0000_L00005_S0001_C0036_G0010_E0001.mol2
#        Tue Jun  6 14:06:47 2017
#        Descriptor:     26    15    19    11     7    11
#        Energy - RMSD - RMSD MassCentre:     -67.5886    999.9999    999.9999
#        Receptor:       1  Surface Point:     1  Conformer:     0
#        Ligand:         5  Surface Point:     1  Conformer:    36
#        BUDE Formal Charge: 0
#        ATOM Count: 55
#        Heavy ATOM Count: 30
@<TRIPOS>MOLECULE
ZINC61464195_1GCZ_R01_S0001_C0000_L00005_S0001_C0036_G0010_E0001
 55 56 0 0 0
SMALL
USER_CHARGES
@<TRIPOS>ATOM
       1 C1        -0.9394    1.3876   -2.8755 C.3       1 <0>        -0.1456 
       2 C2        -0.2306    0.1487   -2.3353 C.3       1 <0>        -0.0579 
       3 C3         1.2119    0.1296   -2.8328 C.3       1 <0>        -0.1456 
       4 C4        -0.2412    0.1820   -0.8259 C.ar      1 <0>        -0.0771 
       5 C5        -0.8818   -0.8582   -0.1424 C.ar      1 <0>        -0.0943 
       6 C6        -0.8250   -0.9119    1.2554 C.ar      1 <0>        -0.0923 
       7 C7        -0.1264    0.0640    1.9762 C.ar      1 <0>        -0.1041 
       8 C8         0.4727    1.1365    1.3049 C.ar      1 <0>        -0.1315 
       9 C9         0.3823    1.2014   -0.0907 C.ar      1 <0>        -0.0969 
      10 S1        -0.0102   -0.0604    3.7380 S.3       1 <0>        -0.0341 
      11 C10        1.4726   -1.0182    4.1810 C.3       1 <0>        -0.1267 
      12 C11        1.5717   -1.1243    5.6841 C.2       1 <0>         0.4864 
      13 O1         1.2356   -2.1292    6.2363 O.2       1 <0>        -0.4815 
      14 O2         2.0404   -0.0832    6.4043 O.3       1 <0>        -0.3231 
      15 C12        2.4304    1.0984    5.6996 C.3       1 <0>         0.0526 
      16 C13        3.5864    0.7779    4.7825 C.2       1 <0>         0.5250 
      17 O3         3.4833    0.9732    3.5724 O.2       1 <0>        -0.5082 
      18 N1         4.7158    0.2846    5.2821 N.am      1 <0>        -0.5981 
      19 C14        4.8391    0.0513    6.7282 C.3       1 <0>         0.0731 
      20 C15        5.8402   -0.0270    4.3878 C.3       1 <0>         0.1010 
      21 C16        6.4477   -1.3506    4.7869 C.2       1 <0>         0.4997 
      22 O4         7.6591   -1.4370    4.9815 O.2       1 <0>        -0.5061 
      23 N2         5.6725   -2.4221    4.9278 N.am      1 <0>        -0.6702 
      24 C17        6.2418   -3.6624    5.3018 C.ar      1 <0>         0.1553 
      25 C18        5.8272   -4.8415    4.6714 C.ar      1 <0>        -0.1106 
      26 C19        6.3983   -6.0655    5.0397 C.ar      1 <0>        -0.0959 
      27 C20        7.3741   -6.1149    6.0392 C.ar      1 <0>        -0.1208 
      28 C21        7.7797   -4.9379    6.6797 C.ar      1 <0>        -0.0919 
      29 C22        7.2151   -3.7123    6.3070 C.ar      1 <0>        -0.0639 
      30 Cl1        7.7136   -2.2477    7.1033 Cl        1 <0>        -0.0632 
      31 H1        -0.4156    2.2798   -2.5391 H         1 <0>         0.0596 
      32 H2        -0.9434    1.3569   -3.9631 H         1 <0>         0.0563 
      33 H3        -1.9636    1.4075   -2.5088 H         1 <0>         0.0575 
      34 H4        -0.7462   -0.7446   -2.6814 H         1 <0>         0.0784 
      35 H5         1.7125   -0.7604   -2.4572 H         1 <0>         0.0596 
      36 H6         1.7303    1.0165   -2.4743 H         1 <0>         0.0574 
      37 H7         1.2197    0.1191   -3.9206 H         1 <0>         0.0563 
      38 H8        -1.4092   -1.6339   -0.6777 H         1 <0>         0.1285 
      39 H9        -1.2987   -1.6962    1.8271 H         1 <0>         0.1293 
      40 H10        0.9922    1.8919    1.8755 H         1 <0>         0.1227 
      41 H11        0.8193    2.0539   -0.5894 H         1 <0>         0.1262 
      42 H12        1.4028   -2.0154    3.7515 H         1 <0>         0.1329 
      43 H13        2.3577   -0.5171    3.7943 H         1 <0>         0.1329 
      44 H14        2.7346    1.8625    6.4121 H         1 <0>         0.1063 
      45 H15        1.5917    1.4640    5.1108 H         1 <0>         0.1054 
      46 H16        4.0866   -0.6683    7.0442 H         1 <0>         0.0686 
      47 H17        5.8304   -0.3390    6.9487 H         1 <0>         0.0794 
      48 H18        4.6911    0.9888    7.2601 H         1 <0>         0.0778 
      49 H19        5.4814   -0.0865    3.3623 H         1 <0>         0.1198 
      50 H20        6.5919    0.7558    4.4650 H         1 <0>         0.1233 
      51 H21        4.6778   -2.3499    4.7679 H         1 <0>         0.4142 
      52 H22        5.0734   -4.8100    3.8985 H         1 <0>         0.1473 
      53 H23        6.0825   -6.9732    4.5468 H         1 <0>         0.1337 
      54 H24        7.8171   -7.0588    6.3201 H         1 <0>         0.1349 
      55 H25        8.5288   -4.9752    7.4568 H         1 <0>         0.1385 
@<TRIPOS>BOND
       1        1        2 1        
       2        1       31 1        
       3        1       32 1        
       4        1       33 1        
       5        2        3 1        
       6        2        4 1        
       7        2       34 1        
       8        3       35 1        
       9        3       36 1        
      10        3       37 1        
      11        4        9 ar       
      12        4        5 ar       
      13        5        6 ar       
      14        5       38 1        
      15        6        7 ar       
      16        6       39 1        
      17        7        8 ar       
      18        7       10 1        
      19        8        9 ar       
      20        8       40 1        
      21        9       41 1        
      22       10       11 1        
      23       11       12 1        
      24       11       42 1        
      25       11       43 1        
      26       12       13 2        
      27       12       14 1        
      28       14       15 1        
      29       15       16 1        
      30       15       44 1        
      31       15       45 1        
      32       16       17 2        
      33       16       18 am       
      34       18       19 1        
      35       18       20 1        
      36       19       46 1        
      37       19       47 1        
      38       19       48 1        
      39       20       21 1        
      40       20       49 1        
      41       20       50 1        
      42       21       22 2        
      43       21       23 am       
      44       23       24 1        
      45       23       51 1        
      46       24       29 ar       
      47       24       25 ar       
      48       25       26 ar       
      49       25       52 1        
      50       26       27 ar       
      51       26       53 1        
      52       27       28 ar       
      53       27       54 1        
      54       28       29 ar       
      55       28       55 1        
      56       29       30 1        

