#        1GCZ_R01_S0001_C0000_L00005_S0001_C0037_G0010_E0001.mol2
#        Tue Jun  6 09:56:00 2017
#        Descriptor:     14    21    20    11     7    13
#        Energy - RMSD - RMSD MassCentre:     -59.2218    999.9999    999.9999
#        Receptor:       1  Surface Point:     1  Conformer:     0
#        Ligand:         5  Surface Point:     1  Conformer:    37
#        BUDE Formal Charge: 0
#        ATOM Count: 55
#        Heavy ATOM Count: 30
@<TRIPOS>MOLECULE
ZINC61464195_1GCZ_R01_S0001_C0000_L00005_S0001_C0037_G0010_E0001
 55 56 0 0 0
SMALL
USER_CHARGES
@<TRIPOS>ATOM
       1 C1        -1.5990   -0.5056    1.6608 C.3       1 <0>        -0.1456 
       2 C2        -0.6797    0.5858    2.2016 C.3       1 <0>        -0.0579 
       3 C3        -1.1263    1.9416    1.6622 C.3       1 <0>        -0.1456 
       4 C4        -0.7476    0.5980    3.7099 C.ar      1 <0>        -0.0771 
       5 C5        -1.0269   -0.6031    4.3725 C.ar      1 <0>        -0.0943 
       6 C6        -0.9988   -0.6494    5.7715 C.ar      1 <0>        -0.0923 
       7 C7        -0.6870    0.4956    6.5142 C.ar      1 <0>        -0.1041 
       8 C8        -0.4579    1.7131    5.8623 C.ar      1 <0>        -0.1315 
       9 C9        -0.5214    1.7588    4.4645 C.ar      1 <0>        -0.0969 
      10 S1        -0.5908    0.3986    8.2789 S.3       1 <0>        -0.0341 
      11 C10        1.1116   -0.0167    8.7707 C.3       1 <0>        -0.1267 
      12 C11        1.4909   -1.3562    8.1859 C.2       1 <0>         0.4864 
      13 O1         1.4705   -2.3354    8.8707 O.2       1 <0>        -0.4815 
      14 O2         1.8533   -1.4476    6.8888 O.3       1 <0>        -0.3231 
      15 C12        2.2040   -2.7371    6.3797 C.3       1 <0>         0.0526 
      16 C13        3.4251   -3.2489    7.1058 C.2       1 <0>         0.5250 
      17 O3         3.3740   -4.3139    7.7191 O.2       1 <0>        -0.5082 
      18 N1         4.5556   -2.5488    7.0827 N.am      1 <0>        -0.5981 
      19 C14        5.7434   -3.0484    7.7900 C.3       1 <0>         0.0731 
      20 C15        4.6166   -1.2761    6.3497 C.3       1 <0>         0.1010 
      21 C16        5.9147   -1.2001    5.5820 C.2       1 <0>         0.4997 
      22 O4         6.6402   -0.2137    5.6976 O.2       1 <0>        -0.5061 
      23 N2         6.2727   -2.1999    4.7812 N.am      1 <0>        -0.6702 
      24 C17        7.4891   -2.1287    4.0618 C.ar      1 <0>         0.1553 
      25 C18        7.5357   -2.5364    2.7234 C.ar      1 <0>        -0.1106 
      26 C19        8.7398   -2.4575    2.0135 C.ar      1 <0>        -0.0959 
      27 C20        9.8958   -1.9813    2.6383 C.ar      1 <0>        -0.1208 
      28 C21        9.8533   -1.5860    3.9807 C.ar      1 <0>        -0.0919 
      29 C22        8.6482   -1.6569    4.6896 C.ar      1 <0>        -0.0639 
      30 Cl1        8.5920   -1.1704    6.3592 Cl        1 <0>        -0.0632 
      31 H1        -2.6230   -0.3004    1.9657 H         1 <0>         0.0596 
      32 H2        -1.5400   -0.5232    0.5744 H         1 <0>         0.0563 
      33 H3        -1.2882   -1.4700    2.0571 H         1 <0>         0.0575 
      34 H4         0.3428    0.3885    1.8868 H         1 <0>         0.0784 
      35 H5        -0.4627    2.7174    2.0385 H         1 <0>         0.0596 
      36 H6        -2.1441    2.1440    1.9894 H         1 <0>         0.0574 
      37 H7        -1.0902    1.9285    0.5749 H         1 <0>         0.0563 
      38 H8        -1.2496   -1.5043    3.8208 H         1 <0>         0.1285 
      39 H9        -1.2024   -1.5524    6.3277 H         1 <0>         0.1293 
      40 H10       -0.2370    2.5923    6.4494 H         1 <0>         0.1227 
      41 H11       -0.3775    2.7133    3.9799 H         1 <0>         0.1262 
      42 H12        1.7932    0.7462    8.4002 H         1 <0>         0.1329 
      43 H13        1.1749   -0.0644    9.8559 H         1 <0>         0.1329 
      44 H14        2.4206   -2.6611    5.3161 H         1 <0>         0.1063 
      45 H15        1.3761   -3.4261    6.5336 H         1 <0>         0.1054 
      46 H16        6.0332   -4.0117    7.3754 H         1 <0>         0.0686 
      47 H17        6.5606   -2.3404    7.6700 H         1 <0>         0.0794 
      48 H18        5.5137   -3.1625    8.8475 H         1 <0>         0.0778 
      49 H19        3.7803   -1.2174    5.6561 H         1 <0>         0.1198 
      50 H20        4.5626   -0.4493    7.0549 H         1 <0>         0.1233 
      51 H21        5.6761   -3.0095    4.6870 H         1 <0>         0.4142 
      52 H22        6.6461   -2.9057    2.2350 H         1 <0>         0.1473 
      53 H23        8.7721   -2.7655    0.9787 H         1 <0>         0.1337 
      54 H24       10.8234   -1.9169    2.0892 H         1 <0>         0.1349 
      55 H25       10.7471   -1.2239    4.4669 H         1 <0>         0.1385 
@<TRIPOS>BOND
       1        1        2 1        
       2        1       31 1        
       3        1       32 1        
       4        1       33 1        
       5        2        3 1        
       6        2        4 1        
       7        2       34 1        
       8        3       35 1        
       9        3       36 1        
      10        3       37 1        
      11        4        9 ar       
      12        4        5 ar       
      13        5        6 ar       
      14        5       38 1        
      15        6        7 ar       
      16        6       39 1        
      17        7        8 ar       
      18        7       10 1        
      19        8        9 ar       
      20        8       40 1        
      21        9       41 1        
      22       10       11 1        
      23       11       12 1        
      24       11       42 1        
      25       11       43 1        
      26       12       13 2        
      27       12       14 1        
      28       14       15 1        
      29       15       16 1        
      30       15       44 1        
      31       15       45 1        
      32       16       17 2        
      33       16       18 am       
      34       18       19 1        
      35       18       20 1        
      36       19       46 1        
      37       19       47 1        
      38       19       48 1        
      39       20       21 1        
      40       20       49 1        
      41       20       50 1        
      42       21       22 2        
      43       21       23 am       
      44       23       24 1        
      45       23       51 1        
      46       24       29 ar       
      47       24       25 ar       
      48       25       26 ar       
      49       25       52 1        
      50       26       27 ar       
      51       26       53 1        
      52       27       28 ar       
      53       27       54 1        
      54       28       29 ar       
      55       28       55 1        
      56       29       30 1        

