#        1GCZ_R01_S0001_C0000_L00005_S0001_C0037_G0010_E0001.mol2
#        Tue Jun  6 14:06:50 2017
#        Descriptor:     12    20    20    11     8    12
#        Energy - RMSD - RMSD MassCentre:     -65.2841    999.9999    999.9999
#        Receptor:       1  Surface Point:     1  Conformer:     0
#        Ligand:         5  Surface Point:     1  Conformer:    37
#        BUDE Formal Charge: 0
#        ATOM Count: 55
#        Heavy ATOM Count: 30
@<TRIPOS>MOLECULE
ZINC61464195_1GCZ_R01_S0001_C0000_L00005_S0001_C0037_G0010_E0001
 55 56 0 0 0
SMALL
USER_CHARGES
@<TRIPOS>ATOM
       1 C1        -0.4993   -1.0444   -0.3829 C.3       1 <0>        -0.1456 
       2 C2         0.1024    0.2813    0.0744 C.3       1 <0>        -0.0579 
       3 C3        -0.3236    1.3911   -0.8825 C.3       1 <0>        -0.1456 
       4 C4        -0.3879    0.6022    1.4659 C.ar      1 <0>        -0.0771 
       5 C5        -0.7059   -0.4603    2.3202 C.ar      1 <0>        -0.0943 
       6 C6        -1.0674   -0.2021    3.6478 C.ar      1 <0>        -0.0923 
       7 C7        -1.1075    1.1113    4.1308 C.ar      1 <0>        -0.1041 
       8 C8        -0.8423    2.1830    3.2701 C.ar      1 <0>        -0.1315 
       9 C9        -0.5148    1.9183    1.9349 C.ar      1 <0>        -0.0969 
      10 S1        -1.5013    1.4106    5.8303 S.3       1 <0>        -0.0341 
      11 C10        0.0294    1.4155    6.8148 C.3       1 <0>        -0.1267 
      12 C11        0.7055    0.0703    6.6991 C.2       1 <0>         0.4864 
      13 O1         0.6033   -0.7286    7.5819 O.2       1 <0>        -0.4815 
      14 O2         1.4260   -0.2299    5.5977 O.3       1 <0>        -0.3231 
      15 C12        2.0480   -1.5159    5.5332 C.3       1 <0>         0.0526 
      16 C13        3.0649   -1.6385    6.6426 C.2       1 <0>         0.5250 
      17 O3         2.9632   -2.5406    7.4726 O.2       1 <0>        -0.5082 
      18 N1         4.0704   -0.7717    6.7231 N.am      1 <0>        -0.5981 
      19 C14        5.0595   -0.8925    7.8037 C.3       1 <0>         0.0731 
      20 C15        4.1921    0.3062    5.7310 C.3       1 <0>         0.1010 
      21 C16        5.6366    0.4442    5.3134 C.2       1 <0>         0.4997 
      22 O4         6.1850    1.5445    5.3516 O.2       1 <0>        -0.5061 
      23 N2         6.3151   -0.6243    4.9046 N.am      1 <0>        -0.6702 
      24 C17        7.6688   -0.4950    4.5134 C.ar      1 <0>         0.1553 
      25 C18        8.1354   -1.1635    3.3753 C.ar      1 <0>        -0.1106 
      26 C19        9.4738   -1.0270    2.9879 C.ar      1 <0>        -0.0959 
      27 C20       10.3464   -0.2330    3.7373 C.ar      1 <0>        -0.1208 
      28 C21        9.8840    0.4252    4.8833 C.ar      1 <0>        -0.0919 
      29 C22        8.5440    0.2959    5.2674 C.ar      1 <0>        -0.0639 
      30 Cl1        7.9663    1.1090    6.6931 Cl        1 <0>        -0.0632 
      31 H1        -1.5840   -0.9623   -0.4017 H         1 <0>         0.0596 
      32 H2        -0.1355   -1.2821   -1.3804 H         1 <0>         0.0563 
      33 H3        -0.2064   -1.8323    0.3080 H         1 <0>         0.0575 
      34 H4         1.1876    0.2046    0.0816 H         1 <0>         0.0784 
      35 H5         0.1161    2.3336   -0.5626 H         1 <0>         0.0596 
      36 H6        -1.4083    1.4763   -0.8782 H         1 <0>         0.0574 
      37 H7         0.0181    1.1535   -1.8877 H         1 <0>         0.0563 
      38 H8        -0.6619   -1.4831    1.9764 H         1 <0>         0.1285 
      39 H9        -1.3167   -0.9875    4.3460 H         1 <0>         0.1293 
      40 H10       -0.8954    3.1918    3.6520 H         1 <0>         0.1227 
      41 H11       -0.3483    2.7578    1.2761 H         1 <0>         0.1262 
      42 H12        0.6977    2.1898    6.4437 H         1 <0>         0.1329 
      43 H13       -0.2101    1.6117    7.8579 H         1 <0>         0.1329 
      44 H14        2.5451   -1.6312    4.5721 H         1 <0>         0.1063 
      45 H15        1.2930   -2.2910    5.6469 H         1 <0>         0.1054 
      46 H16        5.5604   -1.8556    7.7302 H         1 <0>         0.0686 
      47 H17        5.7928   -0.0938    7.7142 H         1 <0>         0.0794 
      48 H18        4.5560   -0.8175    8.7654 H         1 <0>         0.0778 
      49 H19        3.5835    0.0680    4.8611 H         1 <0>         0.1198 
      50 H20        3.8495    1.2415    6.1690 H         1 <0>         0.1233 
      51 H21        5.8638   -1.5273    4.8738 H         1 <0>         0.4142 
      52 H22        7.4663   -1.7788    2.7922 H         1 <0>         0.1473 
      53 H23        9.8301   -1.5376    2.1053 H         1 <0>         0.1337 
      54 H24       11.3777   -0.1248    3.4359 H         1 <0>         0.1349 
      55 H25       10.5585    1.0339    5.4671 H         1 <0>         0.1385 
@<TRIPOS>BOND
       1        1        2 1        
       2        1       31 1        
       3        1       32 1        
       4        1       33 1        
       5        2        3 1        
       6        2        4 1        
       7        2       34 1        
       8        3       35 1        
       9        3       36 1        
      10        3       37 1        
      11        4        9 ar       
      12        4        5 ar       
      13        5        6 ar       
      14        5       38 1        
      15        6        7 ar       
      16        6       39 1        
      17        7        8 ar       
      18        7       10 1        
      19        8        9 ar       
      20        8       40 1        
      21        9       41 1        
      22       10       11 1        
      23       11       12 1        
      24       11       42 1        
      25       11       43 1        
      26       12       13 2        
      27       12       14 1        
      28       14       15 1        
      29       15       16 1        
      30       15       44 1        
      31       15       45 1        
      32       16       17 2        
      33       16       18 am       
      34       18       19 1        
      35       18       20 1        
      36       19       46 1        
      37       19       47 1        
      38       19       48 1        
      39       20       21 1        
      40       20       49 1        
      41       20       50 1        
      42       21       22 2        
      43       21       23 am       
      44       23       24 1        
      45       23       51 1        
      46       24       29 ar       
      47       24       25 ar       
      48       25       26 ar       
      49       25       52 1        
      50       26       27 ar       
      51       26       53 1        
      52       27       28 ar       
      53       27       54 1        
      54       28       29 ar       
      55       28       55 1        
      56       29       30 1        

