#        1GCZ_R01_S0001_C0000_L00005_S0001_C0038_G0010_E0001.mol2
#        Tue Jun  6 09:56:01 2017
#        Descriptor:     20    24    26    13     7    12
#        Energy - RMSD - RMSD MassCentre:     -61.9664    999.9999    999.9999
#        Receptor:       1  Surface Point:     1  Conformer:     0
#        Ligand:         5  Surface Point:     1  Conformer:    38
#        BUDE Formal Charge: 0
#        ATOM Count: 55
#        Heavy ATOM Count: 30
@<TRIPOS>MOLECULE
ZINC61464195_1GCZ_R01_S0001_C0000_L00005_S0001_C0038_G0010_E0001
 55 56 0 0 0
SMALL
USER_CHARGES
@<TRIPOS>ATOM
       1 C1        -2.0890    0.8270    2.9290 C.3       1 <0>        -0.1456 
       2 C2        -1.1248   -0.2960    2.5580 C.3       1 <0>        -0.0579 
       3 C3        -0.8383   -0.2475    1.0599 C.3       1 <0>        -0.1456 
       4 C4         0.1659   -0.1228    3.3222 C.ar      1 <0>        -0.0771 
       5 C5         0.1182    0.4989    4.5755 C.ar      1 <0>        -0.0943 
       6 C6         1.2784    0.5863    5.3541 C.ar      1 <0>        -0.0923 
       7 C7         2.4864    0.0506    4.8917 C.ar      1 <0>        -0.1041 
       8 C8         2.5555   -0.5260    3.6180 C.ar      1 <0>        -0.1315 
       9 C9         1.3986   -0.5791    2.8315 C.ar      1 <0>        -0.0969 
      10 S1         3.9253    0.1119    5.9207 S.3       1 <0>        -0.0341 
      11 C10        4.0005   -1.3893    6.9469 C.3       1 <0>        -0.1267 
      12 C11        4.0891   -2.6040    6.0543 C.2       1 <0>         0.4864 
      13 O1         3.1164   -3.2665    5.8471 O.2       1 <0>        -0.4815 
      14 O2         5.2681   -2.9419    5.4901 O.3       1 <0>        -0.3231 
      15 C12        5.3032   -4.1004    4.6525 C.3       1 <0>         0.0526 
      16 C13        6.7050   -4.2983    4.1273 C.2       1 <0>         0.5250 
      17 O3         7.3051   -5.3471    4.3574 O.2       1 <0>        -0.5082 
      18 N1         7.2912   -3.3396    3.4161 N.am      1 <0>        -0.5981 
      19 C14        6.5739   -2.0863    3.1410 C.3       1 <0>         0.0731 
      20 C15        8.6560   -3.5339    2.9056 C.3       1 <0>         0.1010 
      21 C16        9.4527   -2.2670    3.1069 C.2       1 <0>         0.4997 
      22 O4        10.0608   -1.7668    2.1620 O.2       1 <0>        -0.5061 
      23 N2         9.4966   -1.6930    4.3059 N.am      1 <0>        -0.6702 
      24 C17       10.2433   -0.5058    4.4944 C.ar      1 <0>         0.1553 
      25 C18       11.2585   -0.1665    3.5923 C.ar      1 <0>        -0.1106 
      26 C19       11.9898    1.0126    3.7789 C.ar      1 <0>        -0.0959 
      27 C20       11.7155    1.8467    4.8662 C.ar      1 <0>        -0.1208 
      28 C21       10.7095    1.5015    5.7766 C.ar      1 <0>        -0.0919 
      29 C22        9.9720    0.3268    5.5868 C.ar      1 <0>        -0.0639 
      30 Cl1        8.7237   -0.1080    6.7182 Cl        1 <0>        -0.0632 
      31 H1        -1.6481    1.7854    2.6631 H         1 <0>         0.0596 
      32 H2        -3.0240    0.6947    2.3884 H         1 <0>         0.0563 
      33 H3        -2.2815    0.8000    3.9996 H         1 <0>         0.0575 
      34 H4        -1.5698   -1.2557    2.8119 H         1 <0>         0.0784 
      35 H5        -0.1606   -1.0561    0.7946 H         1 <0>         0.0596 
      36 H6        -0.3804    0.7072    0.8097 H         1 <0>         0.0574 
      37 H7        -1.7702   -0.3589    0.5093 H         1 <0>         0.0563 
      38 H8        -0.8064    0.9010    4.9624 H         1 <0>         0.1285 
      39 H9         1.2913    1.0518    6.3285 H         1 <0>         0.1293 
      40 H10        3.4986   -0.9183    3.2671 H         1 <0>         0.1227 
      41 H11        1.4778   -0.9947    1.8379 H         1 <0>         0.1262 
      42 H12        4.8779   -1.3470    7.5890 H         1 <0>         0.1329 
      43 H13        3.1043   -1.4554    7.5603 H         1 <0>         0.1329 
      44 H14        4.6192   -3.9654    3.8170 H         1 <0>         0.1063 
      45 H15        5.0055   -4.9743    5.2282 H         1 <0>         0.1054 
      46 H16        6.3329   -1.5935    4.0806 H         1 <0>         0.0686 
      47 H17        7.2030   -1.4337    2.5393 H         1 <0>         0.0794 
      48 H18        5.6558   -2.3058    2.6000 H         1 <0>         0.0778 
      49 H19        9.1310   -4.3512    3.4442 H         1 <0>         0.1198 
      50 H20        8.6152   -3.7727    1.8449 H         1 <0>         0.1233 
      51 H21        8.9969   -2.1046    5.0810 H         1 <0>         0.4142 
      52 H22       11.4756   -0.8072    2.7502 H         1 <0>         0.1473 
      53 H23       12.7677    1.2764    3.0773 H         1 <0>         0.1337 
      54 H24       12.2772    2.7582    5.0075 H         1 <0>         0.1349 
      55 H25       10.5005    2.1417    6.6209 H         1 <0>         0.1385 
@<TRIPOS>BOND
       1        1        2 1        
       2        1       31 1        
       3        1       32 1        
       4        1       33 1        
       5        2        3 1        
       6        2        4 1        
       7        2       34 1        
       8        3       35 1        
       9        3       36 1        
      10        3       37 1        
      11        4        9 ar       
      12        4        5 ar       
      13        5        6 ar       
      14        5       38 1        
      15        6        7 ar       
      16        6       39 1        
      17        7        8 ar       
      18        7       10 1        
      19        8        9 ar       
      20        8       40 1        
      21        9       41 1        
      22       10       11 1        
      23       11       12 1        
      24       11       42 1        
      25       11       43 1        
      26       12       13 2        
      27       12       14 1        
      28       14       15 1        
      29       15       16 1        
      30       15       44 1        
      31       15       45 1        
      32       16       17 2        
      33       16       18 am       
      34       18       19 1        
      35       18       20 1        
      36       19       46 1        
      37       19       47 1        
      38       19       48 1        
      39       20       21 1        
      40       20       49 1        
      41       20       50 1        
      42       21       22 2        
      43       21       23 am       
      44       23       24 1        
      45       23       51 1        
      46       24       29 ar       
      47       24       25 ar       
      48       25       26 ar       
      49       25       52 1        
      50       26       27 ar       
      51       26       53 1        
      52       27       28 ar       
      53       27       54 1        
      54       28       29 ar       
      55       28       55 1        
      56       29       30 1        

