#        1GCZ_R01_S0001_C0000_L00005_S0001_C0038_G0010_E0001.mol2
#        Tue Jun  6 14:06:52 2017
#        Descriptor:     23    25    29    14     8    12
#        Energy - RMSD - RMSD MassCentre:     -60.4611    999.9999    999.9999
#        Receptor:       1  Surface Point:     1  Conformer:     0
#        Ligand:         5  Surface Point:     1  Conformer:    38
#        BUDE Formal Charge: 0
#        ATOM Count: 55
#        Heavy ATOM Count: 30
@<TRIPOS>MOLECULE
ZINC61464195_1GCZ_R01_S0001_C0000_L00005_S0001_C0038_G0010_E0001
 55 56 0 0 0
SMALL
USER_CHARGES
@<TRIPOS>ATOM
       1 C1        -1.2625    1.4094    4.0968 C.3       1 <0>        -0.1456 
       2 C2        -0.3209    0.2614    3.7443 C.3       1 <0>        -0.0579 
       3 C3        -0.3390    0.0324    2.2357 C.3       1 <0>        -0.1456 
       4 C4         1.0814    0.6092    4.1830 C.ar      1 <0>        -0.0771 
       5 C5         1.2423    1.4557    5.2862 C.ar      1 <0>        -0.0943 
       6 C6         2.5252    1.7187    5.7810 C.ar      1 <0>        -0.0923 
       7 C7         3.6499    1.1360    5.1847 C.ar      1 <0>        -0.1041 
       8 C8         3.5031    0.3304    4.0493 C.ar      1 <0>        -0.1315 
       9 C9         2.2197    0.0998    3.5401 C.ar      1 <0>        -0.0969 
      10 S1         5.2565    1.4280    5.8678 S.3       1 <0>        -0.0341 
      11 C10        5.6276    0.1509    7.1102 C.3       1 <0>        -0.1267 
      12 C11        5.6155   -1.2083    6.4525 C.2       1 <0>         0.4864 
      13 O1         4.6651   -1.9227    6.5726 O.2       1 <0>        -0.4815 
      14 O2         6.6792   -1.6168    5.7286 O.3       1 <0>        -0.3231 
      15 C12        6.6220   -2.9118    5.1246 C.3       1 <0>         0.0526 
      16 C13        7.9025   -3.1698    4.3671 C.2       1 <0>         0.5250 
      17 O3         8.6016   -4.1403    4.6544 O.2       1 <0>        -0.5082 
      18 N1         8.2750   -2.3486    3.3896 N.am      1 <0>        -0.5981 
      19 C14        7.4395   -1.1889    3.0463 C.3       1 <0>         0.0731 
      20 C15        9.5220   -2.6013    2.6533 C.3       1 <0>         0.1010 
      21 C16       10.2607   -1.2993    2.4546 C.2       1 <0>         0.4997 
      22 O4        10.6376   -0.9718    1.3306 O.2       1 <0>        -0.5061 
      23 N2        10.5035   -0.5075    3.4954 N.am      1 <0>        -0.6702 
      24 C17       11.1957    0.7125    3.3092 C.ar      1 <0>         0.1553 
      25 C18       11.9896    0.9005    2.1716 C.ar      1 <0>        -0.1106 
      26 C19       12.6670    2.1119    1.9881 C.ar      1 <0>        -0.0959 
      27 C20       12.5600    3.1297    2.9399 C.ar      1 <0>        -0.1208 
      28 C21       11.7771    2.9378    4.0846 C.ar      1 <0>        -0.0919 
      29 C22       11.0928    1.7299    4.2654 C.ar      1 <0>        -0.0639 
      30 Cl1       10.1220    1.4858    5.6887 Cl        1 <0>        -0.0632 
      31 H1        -0.9443    2.3110    3.5775 H         1 <0>         0.0596 
      32 H2        -2.2753    1.1533    3.7927 H         1 <0>         0.0563 
      33 H3        -1.2381    1.5809    5.1709 H         1 <0>         0.0575 
      34 H4        -0.6453   -0.6438    4.2531 H         1 <0>         0.0784 
      35 H5         0.3231   -0.7943    1.9871 H         1 <0>         0.0596 
      36 H6        -0.0009    0.9338    1.7287 H         1 <0>         0.0574 
      37 H7        -1.3521   -0.2050    1.9176 H         1 <0>         0.0563 
      38 H8         0.3883    1.9001    5.7757 H         1 <0>         0.1285 
      39 H9         2.7002    2.3607    6.6316 H         1 <0>         0.1293 
      40 H10        4.3815   -0.0970    3.5887 H         1 <0>         0.1227 
      41 H11        2.1277   -0.4945    2.6430 H         1 <0>         0.1262 
      42 H12        6.6098    0.3365    7.5399 H         1 <0>         0.1329 
      43 H13        4.8759    0.1795    7.8962 H         1 <0>         0.1329 
      44 H14        5.7797   -2.9551    4.4372 H         1 <0>         0.1063 
      45 H15        6.4997   -3.6680    5.8972 H         1 <0>         0.1054 
      46 H16        7.3576   -0.5332    3.9107 H         1 <0>         0.0686 
      47 H17        7.8950   -0.6464    2.2206 H         1 <0>         0.0794 
      48 H18        6.4486   -1.5303    2.7541 H         1 <0>         0.0778 
      49 H19       10.1448   -3.2893    3.2211 H         1 <0>         0.1198 
      50 H20        9.2882   -3.0378    1.6844 H         1 <0>         0.1233 
      51 H21       10.1934   -0.7774    4.4179 H         1 <0>         0.4142 
      52 H22       12.0768    0.1176    1.4326 H         1 <0>         0.1473 
      53 H23       13.2730    2.2577    1.1059 H         1 <0>         0.1337 
      54 H24       13.0795    4.0654    2.7960 H         1 <0>         0.1349 
      55 H25       11.6984    3.7208    4.8242 H         1 <0>         0.1385 
@<TRIPOS>BOND
       1        1        2 1        
       2        1       31 1        
       3        1       32 1        
       4        1       33 1        
       5        2        3 1        
       6        2        4 1        
       7        2       34 1        
       8        3       35 1        
       9        3       36 1        
      10        3       37 1        
      11        4        9 ar       
      12        4        5 ar       
      13        5        6 ar       
      14        5       38 1        
      15        6        7 ar       
      16        6       39 1        
      17        7        8 ar       
      18        7       10 1        
      19        8        9 ar       
      20        8       40 1        
      21        9       41 1        
      22       10       11 1        
      23       11       12 1        
      24       11       42 1        
      25       11       43 1        
      26       12       13 2        
      27       12       14 1        
      28       14       15 1        
      29       15       16 1        
      30       15       44 1        
      31       15       45 1        
      32       16       17 2        
      33       16       18 am       
      34       18       19 1        
      35       18       20 1        
      36       19       46 1        
      37       19       47 1        
      38       19       48 1        
      39       20       21 1        
      40       20       49 1        
      41       20       50 1        
      42       21       22 2        
      43       21       23 am       
      44       23       24 1        
      45       23       51 1        
      46       24       29 ar       
      47       24       25 ar       
      48       25       26 ar       
      49       25       52 1        
      50       26       27 ar       
      51       26       53 1        
      52       27       28 ar       
      53       27       54 1        
      54       28       29 ar       
      55       28       55 1        
      56       29       30 1        

