#        1GCZ_R01_S0001_C0000_L00005_S0001_C0039_G0010_E0001.mol2
#        Tue Jun  6 09:56:02 2017
#        Descriptor:      5    25    14    12     7    13
#        Energy - RMSD - RMSD MassCentre:     -63.1205    999.9999    999.9999
#        Receptor:       1  Surface Point:     1  Conformer:     0
#        Ligand:         5  Surface Point:     1  Conformer:    39
#        BUDE Formal Charge: 0
#        ATOM Count: 55
#        Heavy ATOM Count: 30
@<TRIPOS>MOLECULE
ZINC61464195_1GCZ_R01_S0001_C0000_L00005_S0001_C0039_G0010_E0001
 55 56 0 0 0
SMALL
USER_CHARGES
@<TRIPOS>ATOM
       1 C1        -2.5931   -0.0390    2.5451 C.3       1 <0>        -0.1456 
       2 C2        -1.1546   -0.5429    2.4709 C.3       1 <0>        -0.0579 
       3 C3        -0.4207    0.1754    1.3421 C.3       1 <0>        -0.1456 
       4 C4        -0.4567   -0.2649    3.7806 C.ar      1 <0>        -0.0771 
       5 C5        -1.2256   -0.2326    4.9499 C.ar      1 <0>        -0.0943 
       6 C6        -0.5983   -0.0770    6.1918 C.ar      1 <0>        -0.0923 
       7 C7         0.7943    0.0403    6.2748 C.ar      1 <0>        -0.1041 
       8 C8         1.5665    0.0618    5.1074 C.ar      1 <0>        -0.1315 
       9 C9         0.9286   -0.0600    3.8672 C.ar      1 <0>        -0.0969 
      10 S1         1.5721    0.1682    7.8595 S.3       1 <0>        -0.0341 
      11 C10        1.9780   -1.4973    8.4711 C.3       1 <0>        -0.1267 
      12 C11        2.9320   -2.1665    7.5107 C.2       1 <0>         0.4864 
      13 O1         2.5265   -2.9768    6.7318 O.2       1 <0>        -0.4815 
      14 O2         4.2439   -1.8489    7.5322 O.3       1 <0>        -0.3231 
      15 C12        4.6826   -0.8738    8.4818 C.3       1 <0>         0.0526 
      16 C13        6.1716   -0.6677    8.3389 C.2       1 <0>         0.5250 
      17 O3         6.9145   -0.8668    9.2988 O.2       1 <0>        -0.5082 
      18 N1         6.6803   -0.2710    7.1759 N.am      1 <0>        -0.5981 
      19 C14        5.7925   -0.0331    6.0287 C.3       1 <0>         0.0731 
      20 C15        8.1302   -0.0707    7.0386 C.3       1 <0>         0.1010 
      21 C16        8.5945   -0.6469    5.7222 C.2       1 <0>         0.4997 
      22 O4         9.2647    0.0400    4.9530 O.2       1 <0>        -0.5061 
      23 N2         8.2784   -1.8968    5.3955 N.am      1 <0>        -0.6702 
      24 C17        8.7135   -2.4367    4.1621 C.ar      1 <0>         0.1553 
      25 C18        7.8396   -3.2108    3.3895 C.ar      1 <0>        -0.1106 
      26 C19        8.2721   -3.7369    2.1663 C.ar      1 <0>        -0.0959 
      27 C20        9.5746   -3.4991    1.7186 C.ar      1 <0>        -0.1208 
      28 C21       10.4537   -2.7365    2.4969 C.ar      1 <0>        -0.0919 
      29 C22       10.0200   -2.2030    3.7164 C.ar      1 <0>        -0.0639 
      30 Cl1       11.1107   -1.2581    4.6886 Cl        1 <0>        -0.0632 
      31 H1        -2.5920    1.0343    2.7228 H         1 <0>         0.0596 
      32 H2        -3.0998   -0.2513    1.6059 H         1 <0>         0.0563 
      33 H3        -3.1112   -0.5416    3.3592 H         1 <0>         0.0575 
      34 H4        -1.1541   -1.6141    2.2807 H         1 <0>         0.0784 
      35 H5         0.6010   -0.1936    1.2822 H         1 <0>         0.0596 
      36 H6        -0.4096    1.2451    1.5405 H         1 <0>         0.0574 
      37 H7        -0.9313   -0.0141    0.4001 H         1 <0>         0.0563 
      38 H8        -2.2994   -0.3420    4.9130 H         1 <0>         0.1285 
      39 H9        -1.1474   -0.0508    7.1215 H         1 <0>         0.1293 
      40 H10        2.6381    0.1718    5.1859 H         1 <0>         0.1227 
      41 H11        1.5356   -0.0055    2.9756 H         1 <0>         0.1262 
      42 H12        2.4449   -1.4208    9.4508 H         1 <0>         0.1329 
      43 H13        1.0676   -2.0881    8.5476 H         1 <0>         0.1329 
      44 H14        4.4602   -1.2213    9.4885 H         1 <0>         0.1063 
      45 H15        4.1677    0.0674    8.3003 H         1 <0>         0.1054 
      46 H16        5.0835    0.7540    6.2769 H         1 <0>         0.0686 
      47 H17        6.3857    0.2701    5.1686 H         1 <0>         0.0794 
      48 H18        5.2522   -0.9477    5.7933 H         1 <0>         0.0778 
      49 H19        8.3530    0.9938    7.0679 H         1 <0>         0.1198 
      50 H20        8.6440   -0.5722    7.8560 H         1 <0>         0.1233 
      51 H21        7.7280   -2.4600    6.0280 H         1 <0>         0.4142 
      52 H22        6.8320   -3.3984    3.7301 H         1 <0>         0.1473 
      53 H23        7.5939   -4.3276    1.5681 H         1 <0>         0.1337 
      54 H24        9.9065   -3.9020    0.7732 H         1 <0>         0.1349 
      55 H25       11.4625   -2.5573    2.1555 H         1 <0>         0.1385 
@<TRIPOS>BOND
       1        1        2 1        
       2        1       31 1        
       3        1       32 1        
       4        1       33 1        
       5        2        3 1        
       6        2        4 1        
       7        2       34 1        
       8        3       35 1        
       9        3       36 1        
      10        3       37 1        
      11        4        9 ar       
      12        4        5 ar       
      13        5        6 ar       
      14        5       38 1        
      15        6        7 ar       
      16        6       39 1        
      17        7        8 ar       
      18        7       10 1        
      19        8        9 ar       
      20        8       40 1        
      21        9       41 1        
      22       10       11 1        
      23       11       12 1        
      24       11       42 1        
      25       11       43 1        
      26       12       13 2        
      27       12       14 1        
      28       14       15 1        
      29       15       16 1        
      30       15       44 1        
      31       15       45 1        
      32       16       17 2        
      33       16       18 am       
      34       18       19 1        
      35       18       20 1        
      36       19       46 1        
      37       19       47 1        
      38       19       48 1        
      39       20       21 1        
      40       20       49 1        
      41       20       50 1        
      42       21       22 2        
      43       21       23 am       
      44       23       24 1        
      45       23       51 1        
      46       24       29 ar       
      47       24       25 ar       
      48       25       26 ar       
      49       25       52 1        
      50       26       27 ar       
      51       26       53 1        
      52       27       28 ar       
      53       27       54 1        
      54       28       29 ar       
      55       28       55 1        
      56       29       30 1        

