#        1GCZ_R01_S0001_C0000_L00005_S0001_C0039_G0010_E0001.mol2
#        Tue Jun  6 14:06:54 2017
#        Descriptor:      4    25    13    12     7    12
#        Energy - RMSD - RMSD MassCentre:     -67.0470    999.9999    999.9999
#        Receptor:       1  Surface Point:     1  Conformer:     0
#        Ligand:         5  Surface Point:     1  Conformer:    39
#        BUDE Formal Charge: 0
#        ATOM Count: 55
#        Heavy ATOM Count: 30
@<TRIPOS>MOLECULE
ZINC61464195_1GCZ_R01_S0001_C0000_L00005_S0001_C0039_G0010_E0001
 55 56 0 0 0
SMALL
USER_CHARGES
@<TRIPOS>ATOM
       1 C1        -2.6816   -0.0679    1.7851 C.3       1 <0>        -0.1456 
       2 C2        -1.2524   -0.5908    1.6721 C.3       1 <0>        -0.0579 
       3 C3        -0.5602    0.0711    0.4841 C.3       1 <0>        -0.1456 
       4 C4        -0.4971   -0.2661    2.9384 C.ar      1 <0>        -0.0771 
       5 C5        -1.2154   -0.1761    4.1366 C.ar      1 <0>        -0.0943 
       6 C6        -0.5346    0.0243    5.3433 C.ar      1 <0>        -0.0923 
       7 C7         0.8613    0.1291    5.3628 C.ar      1 <0>        -0.1041 
       8 C8         1.5835    0.0930    4.1642 C.ar      1 <0>        -0.1315 
       9 C9         0.8925   -0.0735    2.9582 C.ar      1 <0>        -0.0969 
      10 S1         1.7067    0.3145    6.9067 S.3       1 <0>        -0.0341 
      11 C10        2.1221   -1.3284    7.5707 C.3       1 <0>        -0.1267 
      12 C11        3.0282   -2.0480    6.6005 C.2       1 <0>         0.4864 
      13 O1         2.5823   -2.8856    5.8742 O.2       1 <0>        -0.4815 
      14 O2         4.3428   -1.7447    6.5535 O.3       1 <0>        -0.3231 
      15 C12        4.8306   -0.7357    7.4416 C.3       1 <0>         0.0526 
      16 C13        6.3142   -0.5527    7.2278 C.2       1 <0>         0.5250 
      17 O3         7.0951   -0.7198    8.1633 O.2       1 <0>        -0.5082 
      18 N1         6.7769   -0.2109    6.0288 N.am      1 <0>        -0.5981 
      19 C14        5.8436   -0.0112    4.9108 C.3       1 <0>         0.0731 
      20 C15        8.2215   -0.0331    5.8224 C.3       1 <0>         0.1010 
      21 C16        8.6241   -0.6691    4.5134 C.2       1 <0>         0.4997 
      22 O4         9.2677   -0.0227    3.6883 O.2       1 <0>        -0.5061 
      23 N2         8.2826   -1.9279    4.2534 N.am      1 <0>        -0.6702 
      24 C17        8.6598   -2.5240    3.0268 C.ar      1 <0>         0.1553 
      25 C18        7.7466   -3.3198    2.3251 C.ar      1 <0>        -0.1106 
      26 C19        8.1218   -3.9016    1.1082 C.ar      1 <0>        -0.0959 
      27 C20        9.4064   -3.6976    0.5966 C.ar      1 <0>        -0.1208 
      28 C21       10.3249   -2.9131    1.3044 C.ar      1 <0>        -0.0919 
      29 C22        9.9484   -2.3241    2.5173 C.ar      1 <0>        -0.0639 
      30 Cl1       11.0883   -1.3516    3.4020 Cl        1 <0>        -0.0632 
      31 H1        -2.6627    1.0118    1.9170 H         1 <0>         0.0596 
      32 H2        -3.2297   -0.3136    0.8778 H         1 <0>         0.0563 
      33 H3        -3.1696   -0.5301    2.6408 H         1 <0>         0.0575 
      34 H4        -1.2703   -1.6689    1.5276 H         1 <0>         0.0784 
      35 H5         0.4545   -0.3116    0.3971 H         1 <0>         0.0596 
      36 H6        -0.5305    1.1481    0.6364 H         1 <0>         0.0574 
      37 H7        -1.1121   -0.1518   -0.4268 H         1 <0>         0.0563 
      38 H8        -2.2908   -0.2747    4.1494 H         1 <0>         0.1285 
      39 H9        -1.0436    0.0957    6.2933 H         1 <0>         0.1293 
      40 H10        2.6585    0.1940    4.1930 H         1 <0>         0.1227 
      41 H11        1.4617   -0.0633    2.0404 H         1 <0>         0.1262 
      42 H12        2.6309   -1.2162    8.5259 H         1 <0>         0.1329 
      43 H13        1.2102   -1.9051    7.7103 H         1 <0>         0.1329 
      44 H14        4.6477   -1.0382    8.4706 H         1 <0>         0.1063 
      45 H15        4.3176    0.2028    7.2422 H         1 <0>         0.1054 
      46 H16        5.1534    0.7936    5.1549 H         1 <0>         0.0686 
      47 H17        6.4028    0.2488    4.0145 H         1 <0>         0.0794 
      48 H18        5.2851   -0.9287    4.7372 H         1 <0>         0.0778 
      49 H19        8.4555    1.0292    5.7973 H         1 <0>         0.1198 
      50 H20        8.7647   -0.5056    6.6382 H         1 <0>         0.1233 
      51 H21        7.7541   -2.4578    4.9318 H         1 <0>         0.4142 
      52 H22        6.7525   -3.4816    2.7152 H         1 <0>         0.1473 
      53 H23        7.4132   -4.5092    0.5645 H         1 <0>         0.1337 
      54 H24        9.6941   -4.1435   -0.3439 H         1 <0>         0.1349 
      55 H25       11.3201   -2.7598    0.9137 H         1 <0>         0.1385 
@<TRIPOS>BOND
       1        1        2 1        
       2        1       31 1        
       3        1       32 1        
       4        1       33 1        
       5        2        3 1        
       6        2        4 1        
       7        2       34 1        
       8        3       35 1        
       9        3       36 1        
      10        3       37 1        
      11        4        9 ar       
      12        4        5 ar       
      13        5        6 ar       
      14        5       38 1        
      15        6        7 ar       
      16        6       39 1        
      17        7        8 ar       
      18        7       10 1        
      19        8        9 ar       
      20        8       40 1        
      21        9       41 1        
      22       10       11 1        
      23       11       12 1        
      24       11       42 1        
      25       11       43 1        
      26       12       13 2        
      27       12       14 1        
      28       14       15 1        
      29       15       16 1        
      30       15       44 1        
      31       15       45 1        
      32       16       17 2        
      33       16       18 am       
      34       18       19 1        
      35       18       20 1        
      36       19       46 1        
      37       19       47 1        
      38       19       48 1        
      39       20       21 1        
      40       20       49 1        
      41       20       50 1        
      42       21       22 2        
      43       21       23 am       
      44       23       24 1        
      45       23       51 1        
      46       24       29 ar       
      47       24       25 ar       
      48       25       26 ar       
      49       25       52 1        
      50       26       27 ar       
      51       26       53 1        
      52       27       28 ar       
      53       27       54 1        
      54       28       29 ar       
      55       28       55 1        
      56       29       30 1        

