#        1GCZ_R01_S0001_C0000_L00005_S0001_C0040_G0010_E0001.mol2
#        Tue Jun  6 09:56:03 2017
#        Descriptor:      4    18    11     9     9    13
#        Energy - RMSD - RMSD MassCentre:     -61.6013    999.9999    999.9999
#        Receptor:       1  Surface Point:     1  Conformer:     0
#        Ligand:         5  Surface Point:     1  Conformer:    40
#        BUDE Formal Charge: 0
#        ATOM Count: 55
#        Heavy ATOM Count: 30
@<TRIPOS>MOLECULE
ZINC61464195_1GCZ_R01_S0001_C0000_L00005_S0001_C0040_G0010_E0001
 55 56 0 0 0
SMALL
USER_CHARGES
@<TRIPOS>ATOM
       1 C1         0.6504    1.4978   -1.4473 C.3       1 <0>        -0.1456 
       2 C2        -0.8018    1.6896   -1.0195 C.3       1 <0>        -0.0579 
       3 C3        -1.7094    0.8354   -1.8999 C.3       1 <0>        -0.1456 
       4 C4        -0.9605    1.2698    0.4221 C.ar      1 <0>        -0.0771 
       5 C5         0.1408    1.3975    1.2769 C.ar      1 <0>        -0.0943 
       6 C6         0.0009    1.1122    2.6403 C.ar      1 <0>        -0.0923 
       7 C7        -1.2348    0.7060    3.1581 C.ar      1 <0>        -0.1041 
       8 C8        -2.3280    0.5251    2.3025 C.ar      1 <0>        -0.1315 
       9 C9        -2.1709    0.7796    0.9349 C.ar      1 <0>        -0.0969 
      10 S1        -1.4064    0.4159    4.8958 S.3       1 <0>        -0.0341 
      11 C10       -1.9084    1.9587    5.7206 C.3       1 <0>        -0.1267 
      12 C11       -2.0548    1.7111    7.2030 C.2       1 <0>         0.4864 
      13 O1        -3.1400    1.5621    7.6805 O.2       1 <0>        -0.4815 
      14 O2        -0.9588    1.6582    7.9894 O.3       1 <0>        -0.3231 
      15 C12       -1.1470    1.4215    9.3871 C.3       1 <0>         0.0526 
      16 C13        0.1953    1.4002   10.0783 C.2       1 <0>         0.5250 
      17 O3         0.4296    2.1917   10.9903 O.2       1 <0>        -0.5082 
      18 N1         1.1244    0.5264    9.7017 N.am      1 <0>        -0.5981 
      19 C14        0.8445   -0.4195    8.6119 C.3       1 <0>         0.0731 
      20 C15        2.4307    0.5071   10.3757 C.3       1 <0>         0.1010 
      21 C16        3.5249    0.3534    9.3464 C.2       1 <0>         0.4997 
      22 O4         4.3737   -0.5268    9.4785 O.2       1 <0>        -0.5061 
      23 N2         3.5700    1.1699    8.2975 N.am      1 <0>        -0.6702 
      24 C17        4.5953    1.0258    7.3329 C.ar      1 <0>         0.1553 
      25 C18        5.7777    0.3532    7.6632 C.ar      1 <0>        -0.1106 
      26 C19        6.7864    0.2068    6.7035 C.ar      1 <0>        -0.0959 
      27 C20        6.6204    0.7367    5.4209 C.ar      1 <0>        -0.1208 
      28 C21        5.4439    1.4214    5.0936 C.ar      1 <0>        -0.0919 
      29 C22        4.4310    1.5615    6.0499 C.ar      1 <0>        -0.0639 
      30 Cl1        2.9690    2.4153    5.6485 Cl        1 <0>        -0.0632 
      31 H1         0.9194    0.4477   -1.3545 H         1 <0>         0.0596 
      32 H2         0.7675    1.8129   -2.4821 H         1 <0>         0.0563 
      33 H3         1.2976    2.0965   -0.8098 H         1 <0>         0.0575 
      34 H4        -1.0759    2.7374   -1.1237 H         1 <0>         0.0784 
      35 H5        -2.7455    0.9825   -1.6021 H         1 <0>         0.0596 
      36 H6        -1.4435   -0.2132   -1.7840 H         1 <0>         0.0574 
      37 H7        -1.5851    1.1289   -2.9402 H         1 <0>         0.0563 
      38 H8         1.0987    1.7292    0.9044 H         1 <0>         0.1285 
      39 H9         0.8190    1.2002    3.3399 H         1 <0>         0.1293 
      40 H10       -3.2700    0.1932    2.7134 H         1 <0>         0.1227 
      41 H11       -3.0141    0.6005    0.2843 H         1 <0>         0.1262 
      42 H12       -1.1517    2.7226    5.5541 H         1 <0>         0.1329 
      43 H13       -2.8598    2.2951    5.3141 H         1 <0>         0.1329 
      44 H14       -1.6429    0.4635    9.5297 H         1 <0>         0.1063 
      45 H15       -1.7598    2.2144    9.8107 H         1 <0>         0.1054 
      46 H16        0.6312    0.1329    7.6991 H         1 <0>         0.0686 
      47 H17        1.7108   -1.0587    8.4559 H         1 <0>         0.0794 
      48 H18       -0.0158   -1.0313    8.8756 H         1 <0>         0.0778 
      49 H19        2.5716    1.4391   10.9191 H         1 <0>         0.1198 
      50 H20        2.4668   -0.3285   11.0717 H         1 <0>         0.1233 
      51 H21        2.8723    1.8923    8.1899 H         1 <0>         0.4142 
      52 H22        5.9123   -0.0582    8.6528 H         1 <0>         0.1473 
      53 H23        7.6949   -0.3192    6.9581 H         1 <0>         0.1337 
      54 H24        7.3971    0.6201    4.6798 H         1 <0>         0.1349 
      55 H25        5.3166    1.8370    4.1050 H         1 <0>         0.1385 
@<TRIPOS>BOND
       1        1        2 1        
       2        1       31 1        
       3        1       32 1        
       4        1       33 1        
       5        2        3 1        
       6        2        4 1        
       7        2       34 1        
       8        3       35 1        
       9        3       36 1        
      10        3       37 1        
      11        4        9 ar       
      12        4        5 ar       
      13        5        6 ar       
      14        5       38 1        
      15        6        7 ar       
      16        6       39 1        
      17        7        8 ar       
      18        7       10 1        
      19        8        9 ar       
      20        8       40 1        
      21        9       41 1        
      22       10       11 1        
      23       11       12 1        
      24       11       42 1        
      25       11       43 1        
      26       12       13 2        
      27       12       14 1        
      28       14       15 1        
      29       15       16 1        
      30       15       44 1        
      31       15       45 1        
      32       16       17 2        
      33       16       18 am       
      34       18       19 1        
      35       18       20 1        
      36       19       46 1        
      37       19       47 1        
      38       19       48 1        
      39       20       21 1        
      40       20       49 1        
      41       20       50 1        
      42       21       22 2        
      43       21       23 am       
      44       23       24 1        
      45       23       51 1        
      46       24       29 ar       
      47       24       25 ar       
      48       25       26 ar       
      49       25       52 1        
      50       26       27 ar       
      51       26       53 1        
      52       27       28 ar       
      53       27       54 1        
      54       28       29 ar       
      55       28       55 1        
      56       29       30 1        

