#        1GCZ_R01_S0001_C0000_L00005_S0001_C0040_G0010_E0001.mol2
#        Tue Jun  6 14:06:56 2017
#        Descriptor:     19     2    28    12     9    15
#        Energy - RMSD - RMSD MassCentre:     -58.5747    999.9999    999.9999
#        Receptor:       1  Surface Point:     1  Conformer:     0
#        Ligand:         5  Surface Point:     1  Conformer:    40
#        BUDE Formal Charge: 0
#        ATOM Count: 55
#        Heavy ATOM Count: 30
@<TRIPOS>MOLECULE
ZINC61464195_1GCZ_R01_S0001_C0000_L00005_S0001_C0040_G0010_E0001
 55 56 0 0 0
SMALL
USER_CHARGES
@<TRIPOS>ATOM
       1 C1         0.9214   -0.8940    1.6266 C.3       1 <0>        -0.1456 
       2 C2        -0.1469   -0.0822    2.3536 C.3       1 <0>        -0.0579 
       3 C3        -1.4654   -0.8504    2.3435 C.3       1 <0>        -0.1456 
       4 C4         0.2860    0.1539    3.7807 C.ar      1 <0>        -0.0771 
       5 C5         1.6568    0.2204    4.0573 C.ar      1 <0>        -0.0943 
       6 C6         2.0917    0.5369    5.3498 C.ar      1 <0>        -0.0923 
       7 C7         1.1660    0.7942    6.3680 C.ar      1 <0>        -0.1041 
       8 C8        -0.2058    0.6786    6.1138 C.ar      1 <0>        -0.1315 
       9 C9        -0.6320    0.3283    4.8271 C.ar      1 <0>        -0.0969 
      10 S1         1.7372    1.2587    7.9777 S.3       1 <0>        -0.0341 
      11 C10        1.8858    3.0704    8.0681 C.3       1 <0>        -0.1267 
      12 C11        2.3731    3.4665    9.4413 C.2       1 <0>         0.4864 
      13 O1         1.6010    3.8805   10.2539 O.2       1 <0>        -0.4815 
      14 O2         3.6822    3.3530    9.7512 O.3       1 <0>        -0.3231 
      15 C12        4.0968    3.7405   11.0638 C.3       1 <0>         0.0526 
      16 C13        5.5866    3.5362   11.2010 C.2       1 <0>         0.5250 
      17 O3         6.3136    4.4866   11.4855 O.2       1 <0>        -0.5082 
      18 N1         6.1131    2.3293   11.0142 N.am      1 <0>        -0.5981 
      19 C14        5.2442    1.1934   10.6742 C.3       1 <0>         0.0731 
      20 C15        7.5637    2.1322   11.1480 C.3       1 <0>         0.1010 
      21 C16        8.0555    1.2449   10.0294 C.2       1 <0>         0.4997 
      22 O4         8.7344    0.2520   10.2858 O.2       1 <0>        -0.5061 
      23 N2         7.7542    1.5379    8.7675 N.am      1 <0>        -0.6702 
      24 C17        8.2150    0.7065    7.7193 C.ar      1 <0>         0.1553 
      25 C18        9.3073   -0.1436    7.9286 C.ar      1 <0>        -0.1106 
      26 C19        9.7552   -0.9695    6.8908 C.ar      1 <0>        -0.0959 
      27 C20        9.1214   -0.9421    5.6455 C.ar      1 <0>        -0.1208 
      28 C21        8.0374   -0.0825    5.4309 C.ar      1 <0>        -0.0919 
      29 C22        7.5833    0.7382    6.4702 C.ar      1 <0>        -0.0639 
      30 Cl1        6.2390    1.8109    6.2064 Cl        1 <0>        -0.0632 
      31 H1         1.0445   -1.8553    2.1212 H         1 <0>         0.0596 
      32 H2         0.6155   -1.0527    0.5946 H         1 <0>         0.0563 
      33 H3         1.8644   -0.3516    1.6468 H         1 <0>         0.0575 
      34 H4        -0.2798    0.8744    1.8527 H         1 <0>         0.0784 
      35 H5        -2.2292   -0.2652    2.8512 H         1 <0>         0.0596 
      36 H6        -1.3346   -1.8006    2.8571 H         1 <0>         0.0574 
      37 H7        -1.7705   -1.0322    1.3151 H         1 <0>         0.0563 
      38 H8         2.3896    0.0465    3.2835 H         1 <0>         0.1285 
      39 H9         3.1374    0.6048    5.6112 H         1 <0>         0.1293 
      40 H10       -0.9077    0.8617    6.9139 H         1 <0>         0.1227 
      41 H11       -1.6919    0.2086    4.6577 H         1 <0>         0.1262 
      42 H12        2.5956    3.4145    7.3188 H         1 <0>         0.1329 
      43 H13        0.9143    3.5242    7.8839 H         1 <0>         0.1329 
      44 H14        3.5784    3.1327   11.8026 H         1 <0>         0.1063 
      45 H15        3.8589    4.7898   11.2251 H         1 <0>         0.1054 
      46 H16        4.7350    1.3959    9.7342 H         1 <0>         0.0686 
      47 H17        5.8474    0.2935   10.5742 H         1 <0>         0.0794 
      48 H18        4.5082    1.0518   11.4629 H         1 <0>         0.0778 
      49 H19        8.0665    3.0956   11.0953 H         1 <0>         0.1198 
      50 H20        7.7784    1.6621   12.1056 H         1 <0>         0.1233 
      51 H21        7.1965    2.3535    8.5581 H         1 <0>         0.4142 
      52 H22        9.8017   -0.1691    8.8886 H         1 <0>         0.1473 
      53 H23       10.5935   -1.6303    7.0567 H         1 <0>         0.1337 
      54 H24        9.4648   -1.5823    4.8465 H         1 <0>         0.1349 
      55 H25        7.5505   -0.0554    4.4673 H         1 <0>         0.1385 
@<TRIPOS>BOND
       1        1        2 1        
       2        1       31 1        
       3        1       32 1        
       4        1       33 1        
       5        2        3 1        
       6        2        4 1        
       7        2       34 1        
       8        3       35 1        
       9        3       36 1        
      10        3       37 1        
      11        4        9 ar       
      12        4        5 ar       
      13        5        6 ar       
      14        5       38 1        
      15        6        7 ar       
      16        6       39 1        
      17        7        8 ar       
      18        7       10 1        
      19        8        9 ar       
      20        8       40 1        
      21        9       41 1        
      22       10       11 1        
      23       11       12 1        
      24       11       42 1        
      25       11       43 1        
      26       12       13 2        
      27       12       14 1        
      28       14       15 1        
      29       15       16 1        
      30       15       44 1        
      31       15       45 1        
      32       16       17 2        
      33       16       18 am       
      34       18       19 1        
      35       18       20 1        
      36       19       46 1        
      37       19       47 1        
      38       19       48 1        
      39       20       21 1        
      40       20       49 1        
      41       20       50 1        
      42       21       22 2        
      43       21       23 am       
      44       23       24 1        
      45       23       51 1        
      46       24       29 ar       
      47       24       25 ar       
      48       25       26 ar       
      49       25       52 1        
      50       26       27 ar       
      51       26       53 1        
      52       27       28 ar       
      53       27       54 1        
      54       28       29 ar       
      55       28       55 1        
      56       29       30 1        

