#        1GCZ_R01_S0001_C0000_L00005_S0001_C0041_G0010_E0001.mol2
#        Tue Jun  6 09:56:04 2017
#        Descriptor:     20     6    31    10     7    15
#        Energy - RMSD - RMSD MassCentre:     -54.4003    999.9999    999.9999
#        Receptor:       1  Surface Point:     1  Conformer:     0
#        Ligand:         5  Surface Point:     1  Conformer:    41
#        BUDE Formal Charge: 0
#        ATOM Count: 55
#        Heavy ATOM Count: 30
@<TRIPOS>MOLECULE
ZINC61464195_1GCZ_R01_S0001_C0000_L00005_S0001_C0041_G0010_E0001
 55 56 0 0 0
SMALL
USER_CHARGES
@<TRIPOS>ATOM
       1 C1         0.9501   -6.4623    7.9420 C.3       1 <0>        -0.1456 
       2 C2        -0.1747   -6.2370    6.9356 C.3       1 <0>        -0.0579 
       3 C3        -1.3210   -7.2009    7.2284 C.3       1 <0>        -0.1456 
       4 C4        -0.6723   -4.8159    7.0480 C.ar      1 <0>        -0.0771 
       5 C5         0.2270   -3.8277    7.4655 C.ar      1 <0>        -0.0943 
       6 C6        -0.1724   -2.4860    7.4850 C.ar      1 <0>        -0.0923 
       7 C7        -1.4635   -2.1231    7.0837 C.ar      1 <0>        -0.1041 
       8 C8        -2.3861   -3.1093    6.7148 C.ar      1 <0>        -0.1315 
       9 C9        -1.9895   -4.4518    6.7306 C.ar      1 <0>        -0.0969 
      10 S1        -1.9257   -0.4148    7.0517 S.3       1 <0>        -0.0341 
      11 C10       -1.5462    0.2847    5.4149 C.3       1 <0>        -0.1267 
      12 C11       -0.0631    0.1743    5.1530 C.2       1 <0>         0.4864 
      13 O1         0.3568   -0.6932    4.4466 O.2       1 <0>        -0.4815 
      14 O2         0.7889    1.0565    5.7172 O.3       1 <0>        -0.3231 
      15 C12        0.2401    2.0773    6.5548 C.3       1 <0>         0.0526 
      16 C13        1.3551    2.9496    7.0801 C.2       1 <0>         0.5250 
      17 O3         1.3505    4.1579    6.8499 O.2       1 <0>        -0.5082 
      18 N1         2.3422    2.4124    7.7912 N.am      1 <0>        -0.5981 
      19 C14        2.3477    0.9684    8.0663 C.3       1 <0>         0.0731 
      20 C15        3.4270    3.2631    8.3017 C.3       1 <0>         0.1010 
      21 C16        4.7504    2.5643    8.1005 C.2       1 <0>         0.4997 
      22 O4         5.5271    2.4351    9.0453 O.2       1 <0>        -0.5061 
      23 N2         5.0755    2.0891    6.9015 N.am      1 <0>        -0.6702 
      24 C17        6.3156    1.4343    6.7129 C.ar      1 <0>         0.1553 
      25 C18        7.0782    1.6954    5.5683 C.ar      1 <0>        -0.1106 
      26 C19        8.3078    1.0506    5.3894 C.ar      1 <0>        -0.0959 
      27 C20        8.7723    0.1422    6.3446 C.ar      1 <0>        -0.1208 
      28 C21        8.0041   -0.1298    7.4830 C.ar      1 <0>        -0.0919 
      29 C22        6.7779    0.5202    7.6672 C.ar      1 <0>        -0.0639 
      30 Cl1        5.8184    0.1820    9.0787 Cl        1 <0>        -0.0632 
      31 H1         0.5725   -6.2998    8.9493 H         1 <0>         0.0596 
      32 H2         1.3176   -7.4824    7.8517 H         1 <0>         0.0563 
      33 H3         1.7607   -5.7650    7.7409 H         1 <0>         0.0575 
      34 H4         0.1984   -6.4113    5.9286 H         1 <0>         0.0784 
      35 H5        -2.1170   -7.0479    6.5027 H         1 <0>         0.0596 
      36 H6        -1.7023   -7.0161    8.2305 H         1 <0>         0.0574 
      37 H7        -0.9593   -8.2248    7.1605 H         1 <0>         0.0563 
      38 H8         1.2348   -4.0809    7.7599 H         1 <0>         0.1285 
      39 H9         0.4858   -1.6876    7.7944 H         1 <0>         0.1293 
      40 H10       -3.3843   -2.8159    6.4255 H         1 <0>         0.1227 
      41 H11       -2.7242   -5.2020    6.4777 H         1 <0>         0.1262 
      42 H12       -2.0907   -0.2647    4.6498 H         1 <0>         0.1329 
      43 H13       -1.8412    1.3316    5.3899 H         1 <0>         0.1329 
      44 H14       -0.2847    1.6184    7.3903 H         1 <0>         0.1063 
      45 H15       -0.4546    2.6853    5.9792 H         1 <0>         0.1054 
      46 H16        2.3853    0.4211    7.1267 H         1 <0>         0.0686 
      47 H17        3.2188    0.7178    8.6680 H         1 <0>         0.0794 
      48 H18        1.4428    0.6995    8.6074 H         1 <0>         0.0778 
      49 H19        3.4297    4.2084    7.7632 H         1 <0>         0.1198 
      50 H20        3.2722    3.4495    9.3625 H         1 <0>         0.1233 
      51 H21        4.4368    2.1957    6.1263 H         1 <0>         0.4142 
      52 H22        6.7247    2.3961    4.8263 H         1 <0>         0.1473 
      53 H23        8.8982    1.2591    4.5092 H         1 <0>         0.1337 
      54 H24        9.7227   -0.3519    6.2080 H         1 <0>         0.1349 
      55 H25        8.3584   -0.8364    8.2189 H         1 <0>         0.1385 
@<TRIPOS>BOND
       1        1        2 1        
       2        1       31 1        
       3        1       32 1        
       4        1       33 1        
       5        2        3 1        
       6        2        4 1        
       7        2       34 1        
       8        3       35 1        
       9        3       36 1        
      10        3       37 1        
      11        4        9 ar       
      12        4        5 ar       
      13        5        6 ar       
      14        5       38 1        
      15        6        7 ar       
      16        6       39 1        
      17        7        8 ar       
      18        7       10 1        
      19        8        9 ar       
      20        8       40 1        
      21        9       41 1        
      22       10       11 1        
      23       11       12 1        
      24       11       42 1        
      25       11       43 1        
      26       12       13 2        
      27       12       14 1        
      28       14       15 1        
      29       15       16 1        
      30       15       44 1        
      31       15       45 1        
      32       16       17 2        
      33       16       18 am       
      34       18       19 1        
      35       18       20 1        
      36       19       46 1        
      37       19       47 1        
      38       19       48 1        
      39       20       21 1        
      40       20       49 1        
      41       20       50 1        
      42       21       22 2        
      43       21       23 am       
      44       23       24 1        
      45       23       51 1        
      46       24       29 ar       
      47       24       25 ar       
      48       25       26 ar       
      49       25       52 1        
      50       26       27 ar       
      51       26       53 1        
      52       27       28 ar       
      53       27       54 1        
      54       28       29 ar       
      55       28       55 1        
      56       29       30 1        

