#        1GCZ_R01_S0001_C0000_L00005_S0001_C0041_G0010_E0001.mol2
#        Tue Jun  6 14:06:58 2017
#        Descriptor:     21    33    27    12     8    13
#        Energy - RMSD - RMSD MassCentre:     -59.0177    999.9999    999.9999
#        Receptor:       1  Surface Point:     1  Conformer:     0
#        Ligand:         5  Surface Point:     1  Conformer:    41
#        BUDE Formal Charge: 0
#        ATOM Count: 55
#        Heavy ATOM Count: 30
@<TRIPOS>MOLECULE
ZINC61464195_1GCZ_R01_S0001_C0000_L00005_S0001_C0041_G0010_E0001
 55 56 0 0 0
SMALL
USER_CHARGES
@<TRIPOS>ATOM
       1 C1         0.1962   -0.5868    0.8754 C.3       1 <0>        -0.1456 
       2 C2        -0.5571    0.4839    1.6595 C.3       1 <0>        -0.0579 
       3 C3        -2.0572    0.3222    1.4309 C.3       1 <0>        -0.1456 
       4 C4        -0.2544    0.3350    3.1312 C.ar      1 <0>        -0.0771 
       5 C5         0.9864   -0.1948    3.5046 C.ar      1 <0>        -0.0943 
       6 C6         1.3395   -0.2541    4.8581 C.ar      1 <0>        -0.0923 
       7 C7         0.4634    0.2187    5.8423 C.ar      1 <0>        -0.1041 
       8 C8        -0.8004    0.7014    5.4825 C.ar      1 <0>        -0.1315 
       9 C9        -1.1594    0.7258    4.1296 C.ar      1 <0>        -0.0969 
      10 S1         0.9575    0.1965    7.5418 S.3       1 <0>        -0.0341 
      11 C10        1.7848    1.7647    7.9525 C.3       1 <0>        -0.1267 
      12 C11        3.0126    1.9263    7.0884 C.2       1 <0>         0.4864 
      13 O1         2.9821    2.6443    6.1337 O.2       1 <0>        -0.4815 
      14 O2         4.1456    1.2592    7.3947 O.3       1 <0>        -0.3231 
      15 C12        4.1344    0.4117    8.5465 C.3       1 <0>         0.0526 
      16 C13        5.4894   -0.2347    8.7079 C.2       1 <0>         0.5250 
      17 O3         6.1312   -0.0664    9.7436 O.2       1 <0>        -0.5082 
      18 N1         5.9895   -0.9857    7.7309 N.am      1 <0>        -0.5981 
      19 C14        5.2226   -1.1868    6.4930 C.3       1 <0>         0.0731 
      20 C15        7.3089   -1.6142    7.8896 C.3       1 <0>         0.1010 
      21 C16        8.0909   -1.4718    6.6057 C.2       1 <0>         0.4997 
      22 O4         8.6030   -2.4615    6.0850 O.2       1 <0>        -0.5061 
      23 N2         8.2256   -0.2762    6.0387 N.am      1 <0>        -0.6702 
      24 C17        8.9584   -0.1429    4.8355 C.ar      1 <0>         0.1553 
      25 C18        9.8419    0.9302    4.6693 C.ar      1 <0>        -0.1106 
      26 C19       10.5701    1.0542    3.4801 C.ar      1 <0>        -0.0959 
      27 C20       10.4120    0.1158    2.4564 C.ar      1 <0>        -0.1208 
      28 C21        9.5186   -0.9501    2.6163 C.ar      1 <0>        -0.0919 
      29 C22        8.7956   -1.0798    3.8080 C.ar      1 <0>        -0.0639 
      30 Cl1        7.6813   -2.4010    4.0092 Cl        1 <0>        -0.0632 
      31 H1        -0.1285   -1.5718    1.2039 H         1 <0>         0.0596 
      32 H2        -0.0114   -0.4711   -0.1864 H         1 <0>         0.0563 
      33 H3         1.2646   -0.4792    1.0504 H         1 <0>         0.0575 
      34 H4        -0.2424    1.4695    1.3232 H         1 <0>         0.0784 
      35 H5        -2.5924    1.0937    1.9804 H         1 <0>         0.0596 
      36 H6        -2.3730   -0.6585    1.7805 H         1 <0>         0.0574 
      37 H7        -2.2736    0.4162    0.3687 H         1 <0>         0.0563 
      38 H8         1.6874   -0.5465    2.7621 H         1 <0>         0.1285 
      39 H9         2.2863   -0.6493    5.1953 H         1 <0>         0.1293 
      40 H10       -1.4729    1.0454    6.2543 H         1 <0>         0.1227 
      41 H11       -2.1512    1.0679    3.8728 H         1 <0>         0.1262 
      42 H12        1.1033    2.5933    7.7716 H         1 <0>         0.1329 
      43 H13        2.0780    1.7573    9.0002 H         1 <0>         0.1329 
      44 H14        3.3775   -0.3601    8.4222 H         1 <0>         0.1063 
      45 H15        3.9079    1.0035    9.4309 H         1 <0>         0.1054 
      46 H16        5.0528   -0.2257    6.0123 H         1 <0>         0.0686 
      47 H17        5.7820   -1.8351    5.8219 H         1 <0>         0.0794 
      48 H18        4.2663   -1.6481    6.7306 H         1 <0>         0.0778 
      49 H19        7.8476   -1.1259    8.6990 H         1 <0>         0.1198 
      50 H20        7.1817   -2.6694    8.1223 H         1 <0>         0.1233 
      51 H21        7.8046    0.5358    6.4671 H         1 <0>         0.4142 
      52 H22        9.9683    1.6588    5.4565 H         1 <0>         0.1473 
      53 H23       11.2570    1.8786    3.3567 H         1 <0>         0.1337 
      54 H24       10.9769    0.2098    1.5408 H         1 <0>         0.1349 
      55 H25        9.3904   -1.6724    1.8236 H         1 <0>         0.1385 
@<TRIPOS>BOND
       1        1        2 1        
       2        1       31 1        
       3        1       32 1        
       4        1       33 1        
       5        2        3 1        
       6        2        4 1        
       7        2       34 1        
       8        3       35 1        
       9        3       36 1        
      10        3       37 1        
      11        4        9 ar       
      12        4        5 ar       
      13        5        6 ar       
      14        5       38 1        
      15        6        7 ar       
      16        6       39 1        
      17        7        8 ar       
      18        7       10 1        
      19        8        9 ar       
      20        8       40 1        
      21        9       41 1        
      22       10       11 1        
      23       11       12 1        
      24       11       42 1        
      25       11       43 1        
      26       12       13 2        
      27       12       14 1        
      28       14       15 1        
      29       15       16 1        
      30       15       44 1        
      31       15       45 1        
      32       16       17 2        
      33       16       18 am       
      34       18       19 1        
      35       18       20 1        
      36       19       46 1        
      37       19       47 1        
      38       19       48 1        
      39       20       21 1        
      40       20       49 1        
      41       20       50 1        
      42       21       22 2        
      43       21       23 am       
      44       23       24 1        
      45       23       51 1        
      46       24       29 ar       
      47       24       25 ar       
      48       25       26 ar       
      49       25       52 1        
      50       26       27 ar       
      51       26       53 1        
      52       27       28 ar       
      53       27       54 1        
      54       28       29 ar       
      55       28       55 1        
      56       29       30 1        

