#        1GCZ_R01_S0001_C0000_L00005_S0001_C0042_G0010_E0001.mol2
#        Tue Jun  6 09:56:04 2017
#        Descriptor:     32    12    14    13     9    15
#        Energy - RMSD - RMSD MassCentre:     -58.2793    999.9999    999.9999
#        Receptor:       1  Surface Point:     1  Conformer:     0
#        Ligand:         5  Surface Point:     1  Conformer:    42
#        BUDE Formal Charge: 0
#        ATOM Count: 55
#        Heavy ATOM Count: 30
@<TRIPOS>MOLECULE
ZINC61464195_1GCZ_R01_S0001_C0000_L00005_S0001_C0042_G0010_E0001
 55 56 0 0 0
SMALL
USER_CHARGES
@<TRIPOS>ATOM
       1 C1        -0.7206   -0.0899    1.2703 C.3       1 <0>        -0.1456 
       2 C2        -1.3268    0.4790    2.5500 C.3       1 <0>        -0.0579 
       3 C3        -2.5518   -0.3419    2.9423 C.3       1 <0>        -0.1456 
       4 C4        -0.3050    0.4186    3.6600 C.ar      1 <0>        -0.0771 
       5 C5         1.0507    0.5004    3.3209 C.ar      1 <0>        -0.0943 
       6 C6         2.0194    0.5481    4.3304 C.ar      1 <0>        -0.0923 
       7 C7         1.6427    0.5209    5.6785 C.ar      1 <0>        -0.1041 
       8 C8         0.2934    0.3863    6.0267 C.ar      1 <0>        -0.1315 
       9 C9        -0.6664    0.3049    5.0109 C.ar      1 <0>        -0.0969 
      10 S1         2.8789    0.6503    6.9387 S.3       1 <0>        -0.0341 
      11 C10        3.1354    2.4029    7.3577 C.3       1 <0>        -0.1267 
      12 C11        4.1900    2.5133    8.4328 C.2       1 <0>         0.4864 
      13 O1         3.8689    2.6928    9.5696 O.2       1 <0>        -0.4815 
      14 O2         5.4964    2.4090    8.1092 O.3       1 <0>        -0.3231 
      15 C12        5.8323    2.1944    6.7359 C.3       1 <0>         0.0526 
      16 C13        7.3331    2.1080    6.5933 C.2       1 <0>         0.5250 
      17 O3         7.9266    2.8937    5.8561 O.2       1 <0>        -0.5082 
      18 N1         8.0136    1.1831    7.2642 N.am      1 <0>        -0.5981 
      19 C14        7.3043    0.2442    8.1452 C.3       1 <0>         0.0731 
      20 C15        9.4746    1.1003    7.1241 C.3       1 <0>         0.1010 
      21 C16       10.0978    0.8802    8.4819 C.2       1 <0>         0.4997 
      22 O4        10.8933   -0.0425    8.6506 O.2       1 <0>        -0.5061 
      23 N2         9.7862    1.6844    9.4943 N.am      1 <0>        -0.6702 
      24 C17       10.3702    1.4783   10.7665 C.ar      1 <0>         0.1553 
      25 C18        9.5860    1.5805   11.9217 C.ar      1 <0>        -0.1106 
      26 C19       10.1665    1.3686   13.1780 C.ar      1 <0>        -0.0959 
      27 C20       11.5265    1.0639   13.2829 C.ar      1 <0>        -0.1208 
      28 C21       12.3146    0.9749   12.1291 C.ar      1 <0>        -0.0919 
      29 C22       11.7337    1.1786   10.8718 C.ar      1 <0>        -0.0639 
      30 Cl1       12.7106    1.0728    9.4357 Cl        1 <0>        -0.0632 
      31 H1        -0.4388   -1.1279    1.4336 H         1 <0>         0.0596 
      32 H2        -1.4524   -0.0341    0.4671 H         1 <0>         0.0563 
      33 H3         0.1608    0.4876    0.9994 H         1 <0>         0.0575 
      34 H4        -1.6204    1.5135    2.3843 H         1 <0>         0.0784 
      35 H5        -2.9904    0.0723    3.8478 H         1 <0>         0.0596 
      36 H6        -2.2544   -1.3731    3.1214 H         1 <0>         0.0574 
      37 H7        -3.2826   -0.3092    2.1368 H         1 <0>         0.0563 
      38 H8         1.3644    0.5438    2.2883 H         1 <0>         0.1285 
      39 H9         3.0764    0.6161    4.1196 H         1 <0>         0.1293 
      40 H10        0.0195    0.3478    7.0706 H         1 <0>         0.1227 
      41 H11       -1.6985    0.1653    5.2966 H         1 <0>         0.1262 
      42 H12        3.4629    2.9439    6.4724 H         1 <0>         0.1329 
      43 H13        2.2027    2.8299    7.7203 H         1 <0>         0.1329 
      44 H14        5.4588    3.0223    6.1369 H         1 <0>         0.1063 
      45 H15        5.3820    1.2654    6.3925 H         1 <0>         0.1054 
      46 H16        6.5961   -0.3377    7.5589 H         1 <0>         0.0686 
      47 H17        8.0226   -0.4241    8.6153 H         1 <0>         0.0794 
      48 H18        6.7699    0.8009    8.9123 H         1 <0>         0.0778 
      49 H19        9.7290    0.2699    6.4688 H         1 <0>         0.1198 
      50 H20        9.8506    2.0280    6.6978 H         1 <0>         0.1233 
      51 H21        9.1328    2.4419    9.3545 H         1 <0>         0.4142 
      52 H22        8.5345    1.8160   11.8474 H         1 <0>         0.1473 
      53 H23        9.5581    1.4404   14.0676 H         1 <0>         0.1337 
      54 H24       11.9730    0.8967   14.2519 H         1 <0>         0.1349 
      55 H25       13.3670    0.7460   12.2089 H         1 <0>         0.1385 
@<TRIPOS>BOND
       1        1        2 1        
       2        1       31 1        
       3        1       32 1        
       4        1       33 1        
       5        2        3 1        
       6        2        4 1        
       7        2       34 1        
       8        3       35 1        
       9        3       36 1        
      10        3       37 1        
      11        4        9 ar       
      12        4        5 ar       
      13        5        6 ar       
      14        5       38 1        
      15        6        7 ar       
      16        6       39 1        
      17        7        8 ar       
      18        7       10 1        
      19        8        9 ar       
      20        8       40 1        
      21        9       41 1        
      22       10       11 1        
      23       11       12 1        
      24       11       42 1        
      25       11       43 1        
      26       12       13 2        
      27       12       14 1        
      28       14       15 1        
      29       15       16 1        
      30       15       44 1        
      31       15       45 1        
      32       16       17 2        
      33       16       18 am       
      34       18       19 1        
      35       18       20 1        
      36       19       46 1        
      37       19       47 1        
      38       19       48 1        
      39       20       21 1        
      40       20       49 1        
      41       20       50 1        
      42       21       22 2        
      43       21       23 am       
      44       23       24 1        
      45       23       51 1        
      46       24       29 ar       
      47       24       25 ar       
      48       25       26 ar       
      49       25       52 1        
      50       26       27 ar       
      51       26       53 1        
      52       27       28 ar       
      53       27       54 1        
      54       28       29 ar       
      55       28       55 1        
      56       29       30 1        

