#        1GCZ_R01_S0001_C0000_L00005_S0001_C0042_G0010_E0001.mol2
#        Tue Jun  6 14:07:00 2017
#        Descriptor:      5    13    32     7     7    13
#        Energy - RMSD - RMSD MassCentre:     -66.0585    999.9999    999.9999
#        Receptor:       1  Surface Point:     1  Conformer:     0
#        Ligand:         5  Surface Point:     1  Conformer:    42
#        BUDE Formal Charge: 0
#        ATOM Count: 55
#        Heavy ATOM Count: 30
@<TRIPOS>MOLECULE
ZINC61464195_1GCZ_R01_S0001_C0000_L00005_S0001_C0042_G0010_E0001
 55 56 0 0 0
SMALL
USER_CHARGES
@<TRIPOS>ATOM
       1 C1        -0.0900   -1.3412   -3.1116 C.3       1 <0>        -0.1456 
       2 C2         0.4691   -0.0367   -2.5509 C.3       1 <0>        -0.0579 
       3 C3        -0.0734    1.1390   -3.3583 C.3       1 <0>        -0.1456 
       4 C4         0.0511    0.1097   -1.1074 C.ar      1 <0>        -0.0771 
       5 C5        -0.1567   -1.0519   -0.3543 C.ar      1 <0>        -0.0943 
       6 C6        -0.4471   -0.9535    1.0117 C.ar      1 <0>        -0.0923 
       7 C7        -0.5253    0.2985    1.6331 C.ar      1 <0>        -0.1041 
       8 C8        -0.3710    1.4670    0.8776 C.ar      1 <0>        -0.1315 
       9 C9        -0.1146    1.3609   -0.4946 C.ar      1 <0>        -0.0969 
      10 S1        -0.8268    0.3974    3.3745 S.3       1 <0>        -0.0341 
      11 C10        0.7605    0.3905    4.2652 C.3       1 <0>        -0.1267 
      12 C11        0.5034    0.4748    5.7507 C.2       1 <0>         0.4864 
      13 O1         0.6336    1.5161    6.3223 O.2       1 <0>        -0.4815 
      14 O2         0.1259   -0.6268    6.4335 O.3       1 <0>        -0.3231 
      15 C12       -0.0169   -1.8502    5.7070 C.3       1 <0>         0.0526 
      16 C13       -0.4423   -2.9488    6.6515 C.2       1 <0>         0.5250 
      17 O3         0.2526   -3.9562    6.7753 O.2       1 <0>        -0.5082 
      18 N1        -1.5677   -2.8280    7.3497 N.am      1 <0>        -0.5981 
      19 C14       -2.3982   -1.6241    7.2018 C.3       1 <0>         0.0731 
      20 C15       -1.9804   -3.8986    8.2687 C.3       1 <0>         0.1010 
      21 C16       -2.4837   -3.2897    9.5557 C.2       1 <0>         0.4997 
      22 O4        -3.5817   -3.6176   10.0025 O.2       1 <0>        -0.5061 
      23 N2        -1.7395   -2.3991   10.2051 N.am      1 <0>        -0.6702 
      24 C17       -2.2110   -1.8286   11.4110 C.ar      1 <0>         0.1553 
      25 C18       -2.0472   -0.4587   11.6485 C.ar      1 <0>        -0.1106 
      26 C19       -2.5218    0.1029   12.8399 C.ar      1 <0>        -0.0959 
      27 C20       -3.1505   -0.7004   13.7955 C.ar      1 <0>        -0.1208 
      28 C21       -3.3027   -2.0729   13.5650 C.ar      1 <0>        -0.0919 
      29 C22       -2.8357   -2.6343   12.3705 C.ar      1 <0>        -0.0639 
      30 Cl1       -3.0194   -4.3404   12.0820 Cl        1 <0>        -0.0632 
      31 H1        -1.1765   -1.3212   -3.0597 H         1 <0>         0.0596 
      32 H2         0.2223   -1.4531   -4.1478 H         1 <0>         0.0563 
      33 H3         0.2865   -2.1776   -2.5263 H         1 <0>         0.0575 
      34 H4         1.5552   -0.0502   -2.6136 H         1 <0>         0.0784 
      35 H5         0.3356    2.0675   -2.9655 H         1 <0>         0.0596 
      36 H6        -1.1587    1.1596   -3.2833 H         1 <0>         0.0574 
      37 H7         0.2165    1.0266   -4.4010 H         1 <0>         0.0563 
      38 H8        -0.0810   -2.0295   -0.8070 H         1 <0>         0.1285 
      39 H9        -0.6106   -1.8199    1.6354 H         1 <0>         0.1293 
      40 H10       -0.4526    2.4261    1.3671 H         1 <0>         0.1227 
      41 H11       -0.0339    2.2721   -1.0686 H         1 <0>         0.1262 
      42 H12        1.2980   -0.5289    4.0425 H         1 <0>         0.1329 
      43 H13        1.3566    1.2450    3.9518 H         1 <0>         0.1329 
      44 H14        0.9343   -2.1142    5.2495 H         1 <0>         0.1063 
      45 H15       -0.7707   -1.7268    4.9322 H         1 <0>         0.1054 
      46 H16       -2.7300   -1.5379    6.1692 H         1 <0>         0.0686 
      47 H17       -3.2637   -1.6988    7.8567 H         1 <0>         0.0794 
      48 H18       -1.8141   -0.7463    7.4702 H         1 <0>         0.0778 
      49 H19       -2.7739   -4.4842    7.8093 H         1 <0>         0.1198 
      50 H20       -1.1292   -4.5425    8.4800 H         1 <0>         0.1233 
      51 H21       -0.8379   -2.1305    9.8372 H         1 <0>         0.4142 
      52 H22       -1.5619    0.1673   10.9142 H         1 <0>         0.1473 
      53 H23       -2.4011    1.1614   13.0179 H         1 <0>         0.1337 
      54 H24       -3.5199   -0.2661   14.7126 H         1 <0>         0.1349 
      55 H25       -3.7824   -2.6961   14.3051 H         1 <0>         0.1385 
@<TRIPOS>BOND
       1        1        2 1        
       2        1       31 1        
       3        1       32 1        
       4        1       33 1        
       5        2        3 1        
       6        2        4 1        
       7        2       34 1        
       8        3       35 1        
       9        3       36 1        
      10        3       37 1        
      11        4        9 ar       
      12        4        5 ar       
      13        5        6 ar       
      14        5       38 1        
      15        6        7 ar       
      16        6       39 1        
      17        7        8 ar       
      18        7       10 1        
      19        8        9 ar       
      20        8       40 1        
      21        9       41 1        
      22       10       11 1        
      23       11       12 1        
      24       11       42 1        
      25       11       43 1        
      26       12       13 2        
      27       12       14 1        
      28       14       15 1        
      29       15       16 1        
      30       15       44 1        
      31       15       45 1        
      32       16       17 2        
      33       16       18 am       
      34       18       19 1        
      35       18       20 1        
      36       19       46 1        
      37       19       47 1        
      38       19       48 1        
      39       20       21 1        
      40       20       49 1        
      41       20       50 1        
      42       21       22 2        
      43       21       23 am       
      44       23       24 1        
      45       23       51 1        
      46       24       29 ar       
      47       24       25 ar       
      48       25       26 ar       
      49       25       52 1        
      50       26       27 ar       
      51       26       53 1        
      52       27       28 ar       
      53       27       54 1        
      54       28       29 ar       
      55       28       55 1        
      56       29       30 1        

