#        1GCZ_R01_S0001_C0000_L00005_S0001_C0043_G0010_E0001.mol2
#        Tue Jun  6 09:56:05 2017
#        Descriptor:      8    12    14     9     9    13
#        Energy - RMSD - RMSD MassCentre:     -71.1428    999.9999    999.9999
#        Receptor:       1  Surface Point:     1  Conformer:     0
#        Ligand:         5  Surface Point:     1  Conformer:    43
#        BUDE Formal Charge: 0
#        ATOM Count: 55
#        Heavy ATOM Count: 30
@<TRIPOS>MOLECULE
ZINC61464195_1GCZ_R01_S0001_C0000_L00005_S0001_C0043_G0010_E0001
 55 56 0 0 0
SMALL
USER_CHARGES
@<TRIPOS>ATOM
       1 C1         0.3402   -0.6943   -3.6711 C.3       1 <0>        -0.1456 
       2 C2         0.8503    0.5037   -2.8752 C.3       1 <0>        -0.0579 
       3 C3         0.1807    1.7766   -3.3852 C.3       1 <0>        -0.1456 
       4 C4         0.5206    0.3132   -1.4141 C.ar      1 <0>        -0.0771 
       5 C5         0.4385   -0.9923   -0.9157 C.ar      1 <0>        -0.0943 
       6 C6         0.2338   -1.2036    0.4530 C.ar      1 <0>        -0.0923 
       7 C7         0.1166   -0.1185    1.3297 C.ar      1 <0>        -0.1041 
       8 C8         0.1448    1.1901    0.8332 C.ar      1 <0>        -0.1315 
       9 C9         0.3158    1.3925   -0.5415 C.ar      1 <0>        -0.0969 
      10 S1        -0.0741   -0.4084    3.0654 S.3       1 <0>        -0.0341 
      11 C10        1.5658   -0.4788    3.8514 C.3       1 <0>        -0.1267 
      12 C11        1.4031   -0.7261    5.3321 C.2       1 <0>         0.4864 
      13 O1         1.5744   -1.8214    5.7782 O.2       1 <0>        -0.4815 
      14 O2         1.0639    0.2909    6.1525 O.3       1 <0>        -0.3231 
      15 C12        0.8693    1.5837    5.5732 C.3       1 <0>         0.0526 
      16 C13        0.4987    2.5688    6.6560 C.2       1 <0>         0.5250 
      17 O3        -0.5634    3.1856    6.5883 O.2       1 <0>        -0.5082 
      18 N1         1.3198    2.7700    7.6826 N.am      1 <0>        -0.5981 
      19 C14        2.5890    2.0329    7.7635 C.3       1 <0>         0.0731 
      20 C15        0.9574    3.7295    8.7358 C.3       1 <0>         0.1010 
      21 C16        1.2863    3.1406   10.0868 C.2       1 <0>         0.4997 
      22 O4         1.9631    3.7822   10.8886 O.2       1 <0>        -0.5061 
      23 N2         0.8439    1.9283   10.4088 N.am      1 <0>        -0.6702 
      24 C17        1.1520    1.3765   11.6747 C.ar      1 <0>         0.1553 
      25 C18        1.5292    0.0324   11.7795 C.ar      1 <0>        -0.1106 
      26 C19        1.8402   -0.5075   13.0332 C.ar      1 <0>        -0.0959 
      27 C20        1.7672    0.2879   14.1802 C.ar      1 <0>        -0.1208 
      28 C21        1.3769    1.6286   14.0782 C.ar      1 <0>        -0.0919 
      29 C22        1.0734    2.1719   12.8242 C.ar      1 <0>        -0.0639 
      30 Cl1        0.5840    3.8366   12.6936 Cl        1 <0>        -0.0632 
      31 H1        -0.7395   -0.7693   -3.5605 H         1 <0>         0.0596 
      32 H2         0.5895   -0.5634   -4.7222 H         1 <0>         0.0563 
      33 H3         0.8078   -1.6029   -3.2974 H         1 <0>         0.0575 
      34 H4         1.9283    0.5871   -2.9952 H         1 <0>         0.0784 
      35 H5         0.5543    2.6314   -2.8254 H         1 <0>         0.0596 
      36 H6        -0.8963    1.6975   -3.2517 H         1 <0>         0.0574 
      37 H7         0.4073    1.9067   -4.4414 H         1 <0>         0.0563 
      38 H8         0.5467   -1.8452   -1.5694 H         1 <0>         0.1285 
      39 H9         0.1681   -2.1910    0.8856 H         1 <0>         0.1293 
      40 H10        0.0343    2.0170    1.5191 H         1 <0>         0.1227 
      41 H11        0.2993    2.4069   -0.9119 H         1 <0>         0.1262 
      42 H12        2.1455   -1.2873    3.4109 H         1 <0>         0.1329 
      43 H13        2.0836    0.4655    3.6969 H         1 <0>         0.1329 
      44 H14        0.0688    1.5356    4.8380 H         1 <0>         0.1063 
      45 H15        1.7884    1.9069    5.0889 H         1 <0>         0.1054 
      46 H16        3.2026    2.2726    6.8975 H         1 <0>         0.0686 
      47 H17        3.1156    2.3175    8.6719 H         1 <0>         0.0794 
      48 H18        2.3864    0.9641    7.7805 H         1 <0>         0.0778 
      49 H19        1.5187    4.6509    8.5948 H         1 <0>         0.1198 
      50 H20       -0.1083    3.9413    8.6815 H         1 <0>         0.1233 
      51 H21        0.2881    1.4023    9.7495 H         1 <0>         0.4142 
      52 H22        1.5872   -0.5876   10.8970 H         1 <0>         0.1473 
      53 H23        2.1383   -1.5428   13.1110 H         1 <0>         0.1337 
      54 H24        2.0109   -0.1280   15.1466 H         1 <0>         0.1349 
      55 H25        1.3136    2.2428   14.9643 H         1 <0>         0.1385 
@<TRIPOS>BOND
       1        1        2 1        
       2        1       31 1        
       3        1       32 1        
       4        1       33 1        
       5        2        3 1        
       6        2        4 1        
       7        2       34 1        
       8        3       35 1        
       9        3       36 1        
      10        3       37 1        
      11        4        9 ar       
      12        4        5 ar       
      13        5        6 ar       
      14        5       38 1        
      15        6        7 ar       
      16        6       39 1        
      17        7        8 ar       
      18        7       10 1        
      19        8        9 ar       
      20        8       40 1        
      21        9       41 1        
      22       10       11 1        
      23       11       12 1        
      24       11       42 1        
      25       11       43 1        
      26       12       13 2        
      27       12       14 1        
      28       14       15 1        
      29       15       16 1        
      30       15       44 1        
      31       15       45 1        
      32       16       17 2        
      33       16       18 am       
      34       18       19 1        
      35       18       20 1        
      36       19       46 1        
      37       19       47 1        
      38       19       48 1        
      39       20       21 1        
      40       20       49 1        
      41       20       50 1        
      42       21       22 2        
      43       21       23 am       
      44       23       24 1        
      45       23       51 1        
      46       24       29 ar       
      47       24       25 ar       
      48       25       26 ar       
      49       25       52 1        
      50       26       27 ar       
      51       26       53 1        
      52       27       28 ar       
      53       27       54 1        
      54       28       29 ar       
      55       28       55 1        
      56       29       30 1        

