#        1GCZ_R01_S0001_C0000_L00005_S0001_C0044_G0010_E0001.mol2
#        Tue Jun  6 09:56:06 2017
#        Descriptor:     35    31    23    11     8    13
#        Energy - RMSD - RMSD MassCentre:     -63.9774    999.9999    999.9999
#        Receptor:       1  Surface Point:     1  Conformer:     0
#        Ligand:         5  Surface Point:     1  Conformer:    44
#        BUDE Formal Charge: 0
#        ATOM Count: 55
#        Heavy ATOM Count: 30
@<TRIPOS>MOLECULE
ZINC61464195_1GCZ_R01_S0001_C0000_L00005_S0001_C0044_G0010_E0001
 55 56 0 0 0
SMALL
USER_CHARGES
@<TRIPOS>ATOM
       1 C1         5.3178   -4.9653    4.8478 C.3       1 <0>        -0.1456 
       2 C2         6.5268   -4.2784    5.4763 C.3       1 <0>        -0.0579 
       3 C3         7.7903   -4.6775    4.7195 C.3       1 <0>        -0.1456 
       4 C4         6.3488   -2.7809    5.4021 C.ar      1 <0>        -0.0771 
       5 C5         5.0477   -2.2645    5.4167 C.ar      1 <0>        -0.0943 
       6 C6         4.8487   -0.8791    5.4499 C.ar      1 <0>        -0.0923 
       7 C7         5.9416   -0.0047    5.4752 C.ar      1 <0>        -0.1041 
       8 C8         7.2453   -0.5101    5.4078 C.ar      1 <0>        -0.1315 
       9 C9         7.4353   -1.8954    5.3404 C.ar      1 <0>        -0.0969 
      10 S1         5.6676    1.7405    5.5854 S.3       1 <0>        -0.0341 
      11 C10        5.6156    2.2361    7.3359 C.3       1 <0>        -0.1267 
      12 C11        4.4813    1.5184    8.0276 C.2       1 <0>         0.4864 
      13 O1         4.7052    0.5630    8.7096 O.2       1 <0>        -0.4815 
      14 O2         3.2134    1.9564    7.8756 O.3       1 <0>        -0.3231 
      15 C12        2.9946    3.1034    7.0501 C.3       1 <0>         0.0526 
      16 C13        1.5192    3.4230    7.0151 C.2       1 <0>         0.5250 
      17 O3         1.1200    4.5250    7.3883 O.2       1 <0>        -0.5082 
      18 N1         0.6511    2.5138    6.5810 N.am      1 <0>        -0.5981 
      19 C14       -0.7848    2.8266    6.5474 C.3       1 <0>         0.0731 
      20 C15        1.1281    1.1969    6.1347 C.3       1 <0>         0.1010 
      21 C16        0.4023    0.8012    4.8711 C.2       1 <0>         0.4997 
      22 O4        -0.1489   -0.2958    4.7969 O.2       1 <0>        -0.5061 
      23 N2         0.3593    1.6393    3.8392 N.am      1 <0>        -0.6702 
      24 C17       -0.3209    1.2685    2.6551 C.ar      1 <0>         0.1553 
      25 C18        0.2473    1.5444    1.4058 C.ar      1 <0>        -0.1106 
      26 C19       -0.4259    1.1693    0.2370 C.ar      1 <0>        -0.0959 
      27 C20       -1.6657    0.5284    0.3133 C.ar      1 <0>        -0.1208 
      28 C21       -2.2410    0.2641    1.5620 C.ar      1 <0>        -0.0919 
      29 C22       -1.5652    0.6315    2.7317 C.ar      1 <0>        -0.0639 
      30 Cl1       -2.2786    0.3084    4.2855 Cl        1 <0>        -0.0632 
      31 H1         5.2370   -4.6715    3.8033 H         1 <0>         0.0596 
      32 H2         5.4400   -6.0445    4.9133 H         1 <0>         0.0563 
      33 H3         4.4160   -4.6688    5.3795 H         1 <0>         0.0575 
      34 H4         6.6161   -4.5811    6.5175 H         1 <0>         0.0784 
      35 H5         8.6530   -4.1971    5.1762 H         1 <0>         0.0596 
      36 H6         7.7056   -4.3618    3.6817 H         1 <0>         0.0574 
      37 H7         7.9114   -5.7580    4.7616 H         1 <0>         0.0563 
      38 H8         4.1890   -2.9195    5.4187 H         1 <0>         0.1285 
      39 H9         3.8652   -0.4331    5.4669 H         1 <0>         0.1293 
      40 H10        8.0782    0.1775    5.4093 H         1 <0>         0.1227 
      41 H11        8.4458   -2.2664    5.2528 H         1 <0>         0.1262 
      42 H12        6.5561    1.9738    7.8159 H         1 <0>         0.1329 
      43 H13        5.4596    3.3106    7.4048 H         1 <0>         0.1329 
      44 H14        3.3443    2.8966    6.0408 H         1 <0>         0.1063 
      45 H15        3.5394    3.9530    7.4565 H         1 <0>         0.1054 
      46 H16       -0.9553    3.6750    5.8879 H         1 <0>         0.0686 
      47 H17       -1.3348    1.9634    6.1786 H         1 <0>         0.0794 
      48 H18       -1.1253    3.0727    7.5511 H         1 <0>         0.0778 
      49 H19        2.1973    1.2464    5.9393 H         1 <0>         0.1198 
      50 H20        0.9344    0.4597    6.9111 H         1 <0>         0.1233 
      51 H21        0.8123    2.5399    3.9013 H         1 <0>         0.4142 
      52 H22        1.2047    2.0398    1.3401 H         1 <0>         0.1473 
      53 H23        0.0175    1.3764   -0.7258 H         1 <0>         0.1337 
      54 H24       -2.1828    0.2357   -0.5884 H         1 <0>         0.1349 
      55 H25       -3.2019   -0.2253    1.6226 H         1 <0>         0.1385 
@<TRIPOS>BOND
       1        1        2 1        
       2        1       31 1        
       3        1       32 1        
       4        1       33 1        
       5        2        3 1        
       6        2        4 1        
       7        2       34 1        
       8        3       35 1        
       9        3       36 1        
      10        3       37 1        
      11        4        9 ar       
      12        4        5 ar       
      13        5        6 ar       
      14        5       38 1        
      15        6        7 ar       
      16        6       39 1        
      17        7        8 ar       
      18        7       10 1        
      19        8        9 ar       
      20        8       40 1        
      21        9       41 1        
      22       10       11 1        
      23       11       12 1        
      24       11       42 1        
      25       11       43 1        
      26       12       13 2        
      27       12       14 1        
      28       14       15 1        
      29       15       16 1        
      30       15       44 1        
      31       15       45 1        
      32       16       17 2        
      33       16       18 am       
      34       18       19 1        
      35       18       20 1        
      36       19       46 1        
      37       19       47 1        
      38       19       48 1        
      39       20       21 1        
      40       20       49 1        
      41       20       50 1        
      42       21       22 2        
      43       21       23 am       
      44       23       24 1        
      45       23       51 1        
      46       24       29 ar       
      47       24       25 ar       
      48       25       26 ar       
      49       25       52 1        
      50       26       27 ar       
      51       26       53 1        
      52       27       28 ar       
      53       27       54 1        
      54       28       29 ar       
      55       28       55 1        
      56       29       30 1        

