#        1GCZ_R01_S0001_C0000_L00005_S0001_C0044_G0010_E0001.mol2
#        Tue Jun  6 14:07:04 2017
#        Descriptor:     34    31    21    11     7    13
#        Energy - RMSD - RMSD MassCentre:     -64.6883    999.9999    999.9999
#        Receptor:       1  Surface Point:     1  Conformer:     0
#        Ligand:         5  Surface Point:     1  Conformer:    44
#        BUDE Formal Charge: 0
#        ATOM Count: 55
#        Heavy ATOM Count: 30
@<TRIPOS>MOLECULE
ZINC61464195_1GCZ_R01_S0001_C0000_L00005_S0001_C0044_G0010_E0001
 55 56 0 0 0
SMALL
USER_CHARGES
@<TRIPOS>ATOM
       1 C1         4.1765   -6.3049    4.2770 C.3       1 <0>        -0.1456 
       2 C2         5.5422   -5.9484    4.8573 C.3       1 <0>        -0.0579 
       3 C3         6.6399   -6.5317    3.9723 C.3       1 <0>        -0.1456 
       4 C4         5.6875   -4.4467    4.9138 C.ar      1 <0>        -0.0771 
       5 C5         4.5321   -3.6724    5.0734 C.ar      1 <0>        -0.0943 
       6 C6         4.6395   -2.2853    5.2298 C.ar      1 <0>        -0.0923 
       7 C7         5.8949   -1.6659    5.2345 C.ar      1 <0>        -0.1041 
       8 C8         7.0519   -2.4250    5.0231 C.ar      1 <0>        -0.1315 
       9 C9         6.9336   -3.8070    4.8335 C.ar      1 <0>        -0.0969 
      10 S1         6.0118    0.0800    5.5013 S.3       1 <0>        -0.0341 
      11 C10        6.1771    0.4106    7.2834 C.3       1 <0>        -0.1267 
      12 C11        4.9600   -0.1143    8.0067 C.2       1 <0>         0.4864 
      13 O1         5.0142   -1.1545    8.5924 O.2       1 <0>        -0.4815 
      14 O2         3.8097    0.5922    7.9919 O.3       1 <0>        -0.3231 
      15 C12        3.7927    1.8313    7.2782 C.3       1 <0>         0.0526 
      16 C13        2.4219    2.4551    7.3871 C.2       1 <0>         0.5250 
      17 O3         2.2943    3.5767    7.8756 O.2       1 <0>        -0.5082 
      18 N1         1.3526    1.7927    6.9554 N.am      1 <0>        -0.5981 
      19 C14        0.0189    2.4015    7.0621 C.3       1 <0>         0.0731 
      20 C15        1.5052    0.4523    6.3714 C.3       1 <0>         0.1010 
      21 C16        0.6338    0.3368    5.1436 C.2       1 <0>         0.4997 
      22 O4        -0.1448   -0.6084    5.0293 O.2       1 <0>        -0.5061 
      23 N2         0.7087    1.2574    4.1866 N.am      1 <0>        -0.6702 
      24 C17       -0.1080    1.1493    3.0361 C.ar      1 <0>         0.1553 
      25 C18        0.4275    1.4147    1.7701 C.ar      1 <0>        -0.1106 
      26 C19       -0.3824    1.2995    0.6339 C.ar      1 <0>        -0.0959 
      27 C20       -1.7241    0.9287    0.7601 C.ar      1 <0>        -0.1208 
      28 C21       -2.2640    0.6761    2.0270 C.ar      1 <0>        -0.0919 
      29 C22       -1.4533    0.7832    3.1633 C.ar      1 <0>        -0.0639 
      30 Cl1       -2.1214    0.4740    4.7398 Cl        1 <0>        -0.0632 
      31 H1         4.0962   -5.9050    3.2684 H         1 <0>         0.0596 
      32 H2         4.0666   -7.3871    4.2486 H         1 <0>         0.0563 
      33 H3         3.3950   -5.8766    4.9011 H         1 <0>         0.0575 
      34 H4         5.6286   -6.3585    5.8612 H         1 <0>         0.0784 
      35 H5         7.6127   -6.2875    4.3938 H         1 <0>         0.0596 
      36 H6         6.5610   -6.1102    2.9723 H         1 <0>         0.0574 
      37 H7         6.5272   -7.6127    3.9207 H         1 <0>         0.0563 
      38 H8         3.5541   -4.1300    5.0939 H         1 <0>         0.1285 
      39 H9         3.7786   -1.6464    5.3606 H         1 <0>         0.1293 
      40 H10        8.0121   -1.9307    5.0107 H         1 <0>         0.1227 
      41 H11        7.8327   -4.3720    4.6362 H         1 <0>         0.1262 
      42 H12        7.0668   -0.0866    7.6641 H         1 <0>         0.1329 
      43 H13        6.2615    1.4828    7.4477 H         1 <0>         0.1329 
      44 H14        4.0259    1.6503    6.2309 H         1 <0>         0.1063 
      45 H15        4.5324    2.5060    7.7038 H         1 <0>         0.1054 
      46 H16       -0.0050    3.3243    6.4862 H         1 <0>         0.0686 
      47 H17       -0.7264    1.7109    6.6731 H         1 <0>         0.0794 
      48 H18       -0.1971    2.6192    8.1061 H         1 <0>         0.0778 
      49 H19        2.5456    0.2943    6.0947 H         1 <0>         0.1198 
      50 H20        1.2056   -0.2968    7.1014 H         1 <0>         0.1233 
      51 H21        1.3484    2.0333    4.2815 H         1 <0>         0.4142 
      52 H22        1.4633    1.7021    1.6660 H         1 <0>         0.1473 
      53 H23        0.0345    1.4974   -0.3426 H         1 <0>         0.1337 
      54 H24       -2.3473    0.8361   -0.1168 H         1 <0>         0.1349 
      55 H25       -3.3022    0.3958    2.1268 H         1 <0>         0.1385 
@<TRIPOS>BOND
       1        1        2 1        
       2        1       31 1        
       3        1       32 1        
       4        1       33 1        
       5        2        3 1        
       6        2        4 1        
       7        2       34 1        
       8        3       35 1        
       9        3       36 1        
      10        3       37 1        
      11        4        9 ar       
      12        4        5 ar       
      13        5        6 ar       
      14        5       38 1        
      15        6        7 ar       
      16        6       39 1        
      17        7        8 ar       
      18        7       10 1        
      19        8        9 ar       
      20        8       40 1        
      21        9       41 1        
      22       10       11 1        
      23       11       12 1        
      24       11       42 1        
      25       11       43 1        
      26       12       13 2        
      27       12       14 1        
      28       14       15 1        
      29       15       16 1        
      30       15       44 1        
      31       15       45 1        
      32       16       17 2        
      33       16       18 am       
      34       18       19 1        
      35       18       20 1        
      36       19       46 1        
      37       19       47 1        
      38       19       48 1        
      39       20       21 1        
      40       20       49 1        
      41       20       50 1        
      42       21       22 2        
      43       21       23 am       
      44       23       24 1        
      45       23       51 1        
      46       24       29 ar       
      47       24       25 ar       
      48       25       26 ar       
      49       25       52 1        
      50       26       27 ar       
      51       26       53 1        
      52       27       28 ar       
      53       27       54 1        
      54       28       29 ar       
      55       28       55 1        
      56       29       30 1        

