#        1GCZ_R01_S0001_C0000_L00005_S0001_C0045_G0010_E0001.mol2
#        Tue Jun  6 09:56:07 2017
#        Descriptor:      3    28     6    11     5    14
#        Energy - RMSD - RMSD MassCentre:     -55.3724    999.9999    999.9999
#        Receptor:       1  Surface Point:     1  Conformer:     0
#        Ligand:         5  Surface Point:     1  Conformer:    45
#        BUDE Formal Charge: 0
#        ATOM Count: 55
#        Heavy ATOM Count: 30
@<TRIPOS>MOLECULE
ZINC61464195_1GCZ_R01_S0001_C0000_L00005_S0001_C0045_G0010_E0001
 55 56 0 0 0
SMALL
USER_CHARGES
@<TRIPOS>ATOM
       1 C1        -0.5264    2.6997    5.2917 C.3       1 <0>        -0.1456 
       2 C2        -0.1678    1.4093    4.5603 C.3       1 <0>        -0.0579 
       3 C3         0.9796    1.6755    3.5901 C.3       1 <0>        -0.1456 
       4 C4         0.2554    0.3638    5.5640 C.ar      1 <0>        -0.0771 
       5 C5        -0.2904    0.4192    6.8519 C.ar      1 <0>        -0.0943 
       6 C6         0.0024   -0.5906    7.7764 C.ar      1 <0>        -0.0923 
       7 C7         0.8327   -1.6603    7.4211 C.ar      1 <0>        -0.1041 
       8 C8         1.4249   -1.6966    6.1532 C.ar      1 <0>        -0.1315 
       9 C9         1.1543   -0.6653    5.2460 C.ar      1 <0>        -0.0969 
      10 S1         1.1353   -2.9608    8.5829 S.3       1 <0>        -0.0341 
      11 C10       -0.1214   -4.2611    8.3773 C.3       1 <0>        -0.1267 
      12 C11       -0.0367   -4.8251    6.9791 C.2       1 <0>         0.4864 
      13 O1        -0.8211   -4.4802    6.1464 O.2       1 <0>        -0.4815 
      14 O2         0.9260   -5.7195    6.6698 O.3       1 <0>        -0.3231 
      15 C12        1.8420   -6.1020    7.6992 C.3       1 <0>         0.0526 
      16 C13        2.8291   -7.1024    7.1470 C.2       1 <0>         0.5250 
      17 O3         2.9270   -8.2163    7.6593 O.2       1 <0>        -0.5082 
      18 N1         3.5928   -6.7798    6.1071 N.am      1 <0>        -0.5981 
      19 C14        4.5533   -7.7548    5.5707 C.3       1 <0>         0.0731 
      20 C15        3.4758   -5.4486    5.4946 C.3       1 <0>         0.1010 
      21 C16        4.8544   -4.9106    5.1945 C.2       1 <0>         0.4997 
      22 O4         5.1194   -4.4927    4.0685 O.2       1 <0>        -0.5061 
      23 N2         5.7815   -4.8890    6.1480 N.am      1 <0>        -0.6702 
      24 C17        7.0733   -4.3849    5.8668 C.ar      1 <0>         0.1553 
      25 C18        8.2054   -5.0515    6.3502 C.ar      1 <0>        -0.1106 
      26 C19        9.4819   -4.5530    6.0634 C.ar      1 <0>        -0.0959 
      27 C20        9.6291   -3.3890    5.3040 C.ar      1 <0>        -0.1208 
      28 C21        8.4972   -2.7141    4.8314 C.ar      1 <0>        -0.0919 
      29 C22        7.2204   -3.2158    5.1107 C.ar      1 <0>        -0.0639 
      30 Cl1        5.8108   -2.3778    4.5287 Cl        1 <0>        -0.0632 
      31 H1         0.3446    3.0631    5.8329 H         1 <0>         0.0596 
      32 H2        -0.8440    3.4489    4.5694 H         1 <0>         0.0563 
      33 H3        -1.3351    2.5055    5.9932 H         1 <0>         0.0575 
      34 H4        -1.0345    1.0515    4.0085 H         1 <0>         0.0784 
      35 H5         1.2261    0.7578    3.0603 H         1 <0>         0.0596 
      36 H6         1.8501    2.0199    4.1447 H         1 <0>         0.0574 
      37 H7         0.6794    2.4386    2.8749 H         1 <0>         0.0563 
      38 H8        -0.9502    1.2233    7.1426 H         1 <0>         0.1285 
      39 H9        -0.3979   -0.5946    8.7795 H         1 <0>         0.1293 
      40 H10        2.0783   -2.5185    5.8997 H         1 <0>         0.1227 
      41 H11        1.6476   -0.6905    4.2855 H         1 <0>         0.1262 
      42 H12        0.0561   -5.0554    9.0994 H         1 <0>         0.1329 
      43 H13       -1.1111   -3.8386    8.5379 H         1 <0>         0.1329 
      44 H14        1.2939   -6.5520    8.5244 H         1 <0>         0.1063 
      45 H15        2.3769   -5.2237    8.0544 H         1 <0>         0.1054 
      46 H16        4.0190   -8.6386    5.2283 H         1 <0>         0.0686 
      47 H17        5.0927   -7.3105    4.7369 H         1 <0>         0.0794 
      48 H18        5.2578   -8.0358    6.3509 H         1 <0>         0.0778 
      49 H19        2.9062   -5.5239    4.5708 H         1 <0>         0.1198 
      50 H20        2.9657   -4.7773    6.1823 H         1 <0>         0.1233 
      51 H21        5.5627   -5.2325    7.0724 H         1 <0>         0.4142 
      52 H22        8.0984   -5.9513    6.9380 H         1 <0>         0.1473 
      53 H23       10.3544   -5.0729    6.4311 H         1 <0>         0.1337 
      54 H24       10.6140   -3.0071    5.0797 H         1 <0>         0.1349 
      55 H25        8.6090   -1.8109    4.2499 H         1 <0>         0.1385 
@<TRIPOS>BOND
       1        1        2 1        
       2        1       31 1        
       3        1       32 1        
       4        1       33 1        
       5        2        3 1        
       6        2        4 1        
       7        2       34 1        
       8        3       35 1        
       9        3       36 1        
      10        3       37 1        
      11        4        9 ar       
      12        4        5 ar       
      13        5        6 ar       
      14        5       38 1        
      15        6        7 ar       
      16        6       39 1        
      17        7        8 ar       
      18        7       10 1        
      19        8        9 ar       
      20        8       40 1        
      21        9       41 1        
      22       10       11 1        
      23       11       12 1        
      24       11       42 1        
      25       11       43 1        
      26       12       13 2        
      27       12       14 1        
      28       14       15 1        
      29       15       16 1        
      30       15       44 1        
      31       15       45 1        
      32       16       17 2        
      33       16       18 am       
      34       18       19 1        
      35       18       20 1        
      36       19       46 1        
      37       19       47 1        
      38       19       48 1        
      39       20       21 1        
      40       20       49 1        
      41       20       50 1        
      42       21       22 2        
      43       21       23 am       
      44       23       24 1        
      45       23       51 1        
      46       24       29 ar       
      47       24       25 ar       
      48       25       26 ar       
      49       25       52 1        
      50       26       27 ar       
      51       26       53 1        
      52       27       28 ar       
      53       27       54 1        
      54       28       29 ar       
      55       28       55 1        
      56       29       30 1        

