#        1GCZ_R01_S0001_C0000_L00005_S0001_C0045_G0010_E0001.mol2
#        Tue Jun  6 14:07:06 2017
#        Descriptor:     36    33    24     9     5    15
#        Energy - RMSD - RMSD MassCentre:     -54.6825    999.9999    999.9999
#        Receptor:       1  Surface Point:     1  Conformer:     0
#        Ligand:         5  Surface Point:     1  Conformer:    45
#        BUDE Formal Charge: 0
#        ATOM Count: 55
#        Heavy ATOM Count: 30
@<TRIPOS>MOLECULE
ZINC61464195_1GCZ_R01_S0001_C0000_L00005_S0001_C0045_G0010_E0001
 55 56 0 0 0
SMALL
USER_CHARGES
@<TRIPOS>ATOM
       1 C1         6.2751   -7.0907    6.0706 C.3       1 <0>        -0.1456 
       2 C2         4.9699   -6.6449    5.4176 C.3       1 <0>        -0.0579 
       3 C3         3.8777   -7.6697    5.7103 C.3       1 <0>        -0.1456 
       4 C4         4.5618   -5.3025    5.9754 C.ar      1 <0>        -0.0771 
       5 C5         5.5663   -4.4316    6.4139 C.ar      1 <0>        -0.0943 
       6 C6         5.2311   -3.1420    6.8434 C.ar      1 <0>        -0.0923 
       7 C7         3.8985   -2.7131    6.8319 C.ar      1 <0>        -0.1041 
       8 C8         2.8819   -3.5944    6.4450 C.ar      1 <0>        -0.1315 
       9 C9         3.2218   -4.8935    6.0493 C.ar      1 <0>        -0.0969 
      10 S1         3.5047   -1.0565    7.3149 S.3       1 <0>        -0.0341 
      11 C10        3.5506    0.0275    5.8536 C.3       1 <0>        -0.1267 
      12 C11        2.5293   -0.4439    4.8462 C.2       1 <0>         0.4864 
      13 O1         2.8752   -1.0832    3.8979 O.2       1 <0>        -0.4815 
      14 O2         1.2245   -0.1428    5.0172 O.3       1 <0>        -0.3231 
      15 C12        0.8581    0.6245    6.1670 C.3       1 <0>         0.0526 
      16 C13       -0.6352    0.8479    6.1670 C.2       1 <0>         0.5250 
      17 O3        -1.0854    1.9926    6.1670 O.2       1 <0>        -0.5082 
      18 N1        -1.4641   -0.1922    6.1670 N.am      1 <0>        -0.5981 
      19 C14       -2.9176    0.0271    6.1669 C.3       1 <0>         0.0731 
      20 C15       -0.9262   -1.5602    6.1668 C.3       1 <0>         0.1010 
      21 C16       -1.7152   -2.4105    7.1334 C.2       1 <0>         0.4997 
      22 O4        -2.1875   -3.4843    6.7634 O.2       1 <0>        -0.5061 
      23 N2        -1.8994   -1.9979    8.3844 N.am      1 <0>        -0.6702 
      24 C17       -2.6388   -2.7947    9.2901 C.ar      1 <0>         0.1553 
      25 C18       -3.5655   -2.1973   10.1527 C.ar      1 <0>        -0.1106 
      26 C19       -4.3001   -2.9905   11.0422 C.ar      1 <0>        -0.0959 
      27 C20       -4.1055   -4.3740   11.0775 C.ar      1 <0>        -0.1208 
      28 C21       -3.1692   -4.9709   10.2248 C.ar      1 <0>        -0.0919 
      29 C22       -2.4397   -4.1799    9.3292 C.ar      1 <0>        -0.0639 
      30 Cl1       -1.2722   -4.9173    8.2705 Cl        1 <0>        -0.0632 
      31 H1         6.1287   -7.1852    7.1445 H         1 <0>         0.0596 
      32 H2         6.5760   -8.0518    5.6589 H         1 <0>         0.0563 
      33 H3         7.0494   -6.3523    5.8730 H         1 <0>         0.0575 
      34 H4         5.1115   -6.5621    4.3421 H         1 <0>         0.0784 
      35 H5         2.9509   -7.3571    5.2338 H         1 <0>         0.0596 
      36 H6         3.7274   -7.7413    6.7856 H         1 <0>         0.0574 
      37 H7         4.1777   -8.6400    5.3201 H         1 <0>         0.0563 
      38 H8         6.6034   -4.7326    6.4123 H         1 <0>         0.1285 
      39 H9         5.9700   -2.4327    7.1861 H         1 <0>         0.1293 
      40 H10        1.8565   -3.2555    6.4590 H         1 <0>         0.1227 
      41 H11        2.4224   -5.5711    5.7882 H         1 <0>         0.1262 
      42 H12        3.3209    1.0485    6.1513 H         1 <0>         0.1329 
      43 H13        4.5421   -0.0065    5.4070 H         1 <0>         0.1329 
      44 H14        1.3679    1.5853    6.1401 H         1 <0>         0.1063 
      45 H15        1.1438    0.0868    7.0687 H         1 <0>         0.1054 
      46 H16       -3.2009    0.5769    5.2718 H         1 <0>         0.0686 
      47 H17       -3.4286   -0.9333    6.1805 H         1 <0>         0.0794 
      48 H18       -3.1974    0.5999    7.0487 H         1 <0>         0.0778 
      49 H19       -1.0045   -1.9799    5.1661 H         1 <0>         0.1198 
      50 H20        0.1182   -1.5385    6.4710 H         1 <0>         0.1233 
      51 H21       -1.5111   -1.1159    8.6871 H         1 <0>         0.4142 
      52 H22       -3.7203   -1.1286   10.1306 H         1 <0>         0.1473 
      53 H23       -5.0201   -2.5285   11.7017 H         1 <0>         0.1337 
      54 H24       -4.6752   -4.9859   11.7611 H         1 <0>         0.1349 
      55 H25       -3.0130   -6.0391   10.2553 H         1 <0>         0.1385 
@<TRIPOS>BOND
       1        1        2 1        
       2        1       31 1        
       3        1       32 1        
       4        1       33 1        
       5        2        3 1        
       6        2        4 1        
       7        2       34 1        
       8        3       35 1        
       9        3       36 1        
      10        3       37 1        
      11        4        9 ar       
      12        4        5 ar       
      13        5        6 ar       
      14        5       38 1        
      15        6        7 ar       
      16        6       39 1        
      17        7        8 ar       
      18        7       10 1        
      19        8        9 ar       
      20        8       40 1        
      21        9       41 1        
      22       10       11 1        
      23       11       12 1        
      24       11       42 1        
      25       11       43 1        
      26       12       13 2        
      27       12       14 1        
      28       14       15 1        
      29       15       16 1        
      30       15       44 1        
      31       15       45 1        
      32       16       17 2        
      33       16       18 am       
      34       18       19 1        
      35       18       20 1        
      36       19       46 1        
      37       19       47 1        
      38       19       48 1        
      39       20       21 1        
      40       20       49 1        
      41       20       50 1        
      42       21       22 2        
      43       21       23 am       
      44       23       24 1        
      45       23       51 1        
      46       24       29 ar       
      47       24       25 ar       
      48       25       26 ar       
      49       25       52 1        
      50       26       27 ar       
      51       26       53 1        
      52       27       28 ar       
      53       27       54 1        
      54       28       29 ar       
      55       28       55 1        
      56       29       30 1        

