#        1GCZ_R01_S0001_C0000_L00005_S0001_C0046_G0010_E0001.mol2
#        Tue Jun  6 09:56:08 2017
#        Descriptor:     24     5    29    10     9    11
#        Energy - RMSD - RMSD MassCentre:     -73.4517    999.9999    999.9999
#        Receptor:       1  Surface Point:     1  Conformer:     0
#        Ligand:         5  Surface Point:     1  Conformer:    46
#        BUDE Formal Charge: 0
#        ATOM Count: 55
#        Heavy ATOM Count: 30
@<TRIPOS>MOLECULE
ZINC61464195_1GCZ_R01_S0001_C0000_L00005_S0001_C0046_G0010_E0001
 55 56 0 0 0
SMALL
USER_CHARGES
@<TRIPOS>ATOM
       1 C1         0.8575    1.8781   -3.7142 C.3       1 <0>        -0.1456 
       2 C2        -0.2051    0.8619   -3.3057 C.3       1 <0>        -0.0579 
       3 C3        -0.0647   -0.3941   -4.1609 C.3       1 <0>        -0.1456 
       4 C4        -0.0229    0.5020   -1.8506 C.ar      1 <0>        -0.0771 
       5 C5         0.5280    1.4609   -0.9924 C.ar      1 <0>        -0.0943 
       6 C6         0.6187    1.1975    0.3795 C.ar      1 <0>        -0.0923 
       7 C7         0.1566   -0.0163    0.9021 C.ar      1 <0>        -0.1041 
       8 C8        -0.3473   -1.0019    0.0451 C.ar      1 <0>        -0.1315 
       9 C9        -0.4032   -0.7440   -1.3298 C.ar      1 <0>        -0.0969 
      10 S1         0.2189   -0.3014    2.6480 S.3       1 <0>        -0.0341 
      11 C10       -1.3315    0.2707    3.4106 C.3       1 <0>        -0.1267 
      12 C11       -1.2784    0.0275    4.8999 C.2       1 <0>         0.4864 
      13 O1        -1.8482   -0.9098    5.3738 O.2       1 <0>        -0.4815 
      14 O2        -0.5866    0.8696    5.6966 O.3       1 <0>        -0.3231 
      15 C12        0.0790    1.9773    5.0844 C.3       1 <0>         0.0526 
      16 C13        0.7870    2.7864    6.1446 C.2       1 <0>         0.5250 
      17 O3         0.5130    3.9761    6.2950 O.2       1 <0>        -0.5082 
      18 N1         1.7068    2.2137    6.9158 N.am      1 <0>        -0.5981 
      19 C14        2.3950    3.0028    7.9475 C.3       1 <0>         0.0731 
      20 C15        2.0342    0.7920    6.7362 C.3       1 <0>         0.1010 
      21 C16        3.5312    0.6080    6.8092 C.2       1 <0>         0.4997 
      22 O4         4.0109   -0.2320    7.5689 O.2       1 <0>        -0.5061 
      23 N2         4.3303    1.3546    6.0522 N.am      1 <0>        -0.6702 
      24 C17        5.7330    1.1823    6.1206 C.ar      1 <0>         0.1553 
      25 C18        6.4945    1.1660    4.9460 C.ar      1 <0>        -0.1106 
      26 C19        7.8830    1.0024    5.0191 C.ar      1 <0>        -0.0959 
      27 C20        8.5095    0.8472    6.2587 C.ar      1 <0>        -0.1208 
      28 C21        7.7474    0.8498    7.4331 C.ar      1 <0>        -0.0919 
      29 C22        6.3598    1.0212    7.3621 C.ar      1 <0>        -0.0639 
      30 Cl1        5.4084    1.0210    8.8191 Cl        1 <0>        -0.0632 
      31 H1         1.8454    1.4426   -3.5801 H         1 <0>         0.0596 
      32 H2         0.7179    2.1475   -4.7591 H         1 <0>         0.0563 
      33 H3         0.7652    2.7675   -3.0943 H         1 <0>         0.0575 
      34 H4        -1.1939    1.2918   -3.4510 H         1 <0>         0.0784 
      35 H5        -0.8306   -1.1128   -3.8771 H         1 <0>         0.0596 
      36 H6         0.9195   -0.8307   -4.0038 H         1 <0>         0.0574 
      37 H7        -0.1827   -0.1324   -5.2104 H         1 <0>         0.0563 
      38 H8         0.8720    2.4128   -1.3692 H         1 <0>         0.1285 
      39 H9         1.0311    1.9067    1.0819 H         1 <0>         0.1293 
      40 H10       -0.6827   -1.9406    0.4604 H         1 <0>         0.1227 
      41 H11       -0.7612   -1.5285   -1.9800 H         1 <0>         0.1262 
      42 H12       -1.4583    1.3347    3.2218 H         1 <0>         0.1329 
      43 H13       -2.1696   -0.2764    2.9840 H         1 <0>         0.1329 
      44 H14       -0.6510    2.6048    4.5774 H         1 <0>         0.1063 
      45 H15        0.8063    1.6106    4.3629 H         1 <0>         0.1054 
      46 H16        1.6657    3.3808    8.6610 H         1 <0>         0.0686 
      47 H17        3.1160    2.3729    8.4642 H         1 <0>         0.0794 
      48 H18        2.9119    3.8382    7.4796 H         1 <0>         0.0778 
      49 H19        1.5578    0.2087    7.5214 H         1 <0>         0.1198 
      50 H20        1.6741    0.4574    5.7656 H         1 <0>         0.1233 
      51 H21        3.9352    2.0442    5.4286 H         1 <0>         0.4142 
      52 H22        6.0162    1.2851    3.9850 H         1 <0>         0.1473 
      53 H23        8.4696    0.9977    4.1122 H         1 <0>         0.1337 
      54 H24        9.5811    0.7249    6.3148 H         1 <0>         0.1349 
      55 H25        8.2292    0.7235    8.3914 H         1 <0>         0.1385 
@<TRIPOS>BOND
       1        1        2 1        
       2        1       31 1        
       3        1       32 1        
       4        1       33 1        
       5        2        3 1        
       6        2        4 1        
       7        2       34 1        
       8        3       35 1        
       9        3       36 1        
      10        3       37 1        
      11        4        9 ar       
      12        4        5 ar       
      13        5        6 ar       
      14        5       38 1        
      15        6        7 ar       
      16        6       39 1        
      17        7        8 ar       
      18        7       10 1        
      19        8        9 ar       
      20        8       40 1        
      21        9       41 1        
      22       10       11 1        
      23       11       12 1        
      24       11       42 1        
      25       11       43 1        
      26       12       13 2        
      27       12       14 1        
      28       14       15 1        
      29       15       16 1        
      30       15       44 1        
      31       15       45 1        
      32       16       17 2        
      33       16       18 am       
      34       18       19 1        
      35       18       20 1        
      36       19       46 1        
      37       19       47 1        
      38       19       48 1        
      39       20       21 1        
      40       20       49 1        
      41       20       50 1        
      42       21       22 2        
      43       21       23 am       
      44       23       24 1        
      45       23       51 1        
      46       24       29 ar       
      47       24       25 ar       
      48       25       26 ar       
      49       25       52 1        
      50       26       27 ar       
      51       26       53 1        
      52       27       28 ar       
      53       27       54 1        
      54       28       29 ar       
      55       28       55 1        
      56       29       30 1        

