#        1GCZ_R01_S0001_C0000_L00005_S0001_C0046_G0010_E0001.mol2
#        Tue Jun  6 14:07:08 2017
#        Descriptor:     25     5    29     9     9    11
#        Energy - RMSD - RMSD MassCentre:     -66.1670    999.9999    999.9999
#        Receptor:       1  Surface Point:     1  Conformer:     0
#        Ligand:         5  Surface Point:     1  Conformer:    46
#        BUDE Formal Charge: 0
#        ATOM Count: 55
#        Heavy ATOM Count: 30
@<TRIPOS>MOLECULE
ZINC61464195_1GCZ_R01_S0001_C0000_L00005_S0001_C0046_G0010_E0001
 55 56 0 0 0
SMALL
USER_CHARGES
@<TRIPOS>ATOM
       1 C1         0.4425    2.0235   -3.7675 C.3       1 <0>        -0.1456 
       2 C2        -0.5093    0.8594   -3.5073 C.3       1 <0>        -0.0579 
       3 C3        -0.1138   -0.3274   -4.3812 C.3       1 <0>        -0.1456 
       4 C4        -0.4300    0.4610   -2.0531 C.ar      1 <0>        -0.0771 
       5 C5        -0.1044    1.4441   -1.1112 C.ar      1 <0>        -0.0943 
       6 C6        -0.1198    1.1331    0.2537 C.ar      1 <0>        -0.0923 
       7 C7        -0.4648   -0.1531    0.6856 C.ar      1 <0>        -0.1041 
       8 C8        -0.7407   -1.1565   -0.2509 C.ar      1 <0>        -0.1315 
       9 C9        -0.6898   -0.8463   -1.6151 C.ar      1 <0>        -0.0969 
      10 S1        -0.5436   -0.5062    2.4183 S.3       1 <0>        -0.0341 
      11 C10       -2.2269   -0.1773    3.0273 C.3       1 <0>        -0.1267 
      12 C11       -2.2941   -0.4785    4.5055 C.2       1 <0>         0.4864 
      13 O1        -2.7776   -1.5029    4.8859 O.2       1 <0>        -0.4815 
      14 O2        -1.8076    0.4101    5.3977 O.3       1 <0>        -0.3231 
      15 C12       -1.2384    1.6220    4.8953 C.3       1 <0>         0.0526 
      16 C13       -0.7584    2.4681    6.0502 C.2       1 <0>         0.5250 
      17 O3        -1.2046    3.6036    6.2073 O.2       1 <0>        -0.5082 
      18 N1         0.1464    1.9866    6.8975 N.am      1 <0>        -0.5981 
      19 C14        0.6126    2.8116    8.0213 C.3       1 <0>         0.0731 
      20 C15        0.6795    0.6296    6.7100 C.3       1 <0>         0.1010 
      21 C16        2.1722    0.6402    6.9376 C.2       1 <0>         0.4997 
      22 O4         2.6807   -0.1632    7.7179 O.2       1 <0>        -0.5061 
      23 N2         2.9364    1.5185    6.2944 N.am      1 <0>        -0.6702 
      24 C17        4.3351    1.5285    6.5078 C.ar      1 <0>         0.1553 
      25 C18        5.2080    1.6652    5.4219 C.ar      1 <0>        -0.1106 
      26 C19        6.5910    1.6818    5.6386 C.ar      1 <0>        -0.0959 
      27 C20        7.1026    1.5541    6.9329 C.ar      1 <0>        -0.1208 
      28 C21        6.2309    1.4038    8.0181 C.ar      1 <0>        -0.0919 
      29 C22        4.8475    1.3950    7.8038 C.ar      1 <0>        -0.0639 
      30 Cl1        3.7608    1.2043    9.1494 Cl        1 <0>        -0.0632 
      31 H1         1.4612    1.7155   -3.5416 H         1 <0>         0.0596 
      32 H2         0.3755    2.3193   -4.8124 H         1 <0>         0.0563 
      33 H3         0.1680    2.8642   -3.1337 H         1 <0>         0.0575 
      34 H4        -1.5270    1.1622   -3.7446 H         1 <0>         0.0784 
      35 H5        -0.8006   -1.1523   -4.2039 H         1 <0>         0.0596 
      36 H6         0.8990   -0.6380   -4.1330 H         1 <0>         0.0574 
      37 H7        -0.1581   -0.0363   -5.4287 H         1 <0>         0.0563 
      38 H8         0.1446    2.4489   -1.4190 H         1 <0>         0.1285 
      39 H9         0.1190    1.8577    1.0181 H         1 <0>         0.1293 
      40 H10       -0.9869   -2.1489    0.0966 H         1 <0>         0.1227 
      41 H11       -0.8702   -1.6407   -2.3242 H         1 <0>         0.1262 
      42 H12       -2.4762    0.8684    2.8593 H         1 <0>         0.1329 
      43 H13       -2.9353   -0.8096    2.4964 H         1 <0>         0.1329 
      44 H14       -1.9908    2.1707    4.3326 H         1 <0>         0.1063 
      45 H15       -0.3984    1.3867    4.2451 H         1 <0>         0.1054 
      46 H16       -0.2303    3.0581    8.6637 H         1 <0>         0.0686 
      47 H17        1.3554    2.2588    8.5925 H         1 <0>         0.0794 
      48 H18        1.0571    3.7278    7.6378 H         1 <0>         0.0778 
      49 H19        0.2084   -0.0459    7.4208 H         1 <0>         0.1198 
      50 H20        0.4691    0.2949    5.6964 H         1 <0>         0.1233 
      51 H21        2.5177    2.1778    5.6538 H         1 <0>         0.4142 
      52 H22        4.8189    1.7639    4.4192 H         1 <0>         0.1473 
      53 H23        7.2626    1.7949    4.8002 H         1 <0>         0.1337 
      54 H24        8.1694    1.5709    7.1000 H         1 <0>         0.1349 
      55 H25        6.6248    1.2985    9.0182 H         1 <0>         0.1385 
@<TRIPOS>BOND
       1        1        2 1        
       2        1       31 1        
       3        1       32 1        
       4        1       33 1        
       5        2        3 1        
       6        2        4 1        
       7        2       34 1        
       8        3       35 1        
       9        3       36 1        
      10        3       37 1        
      11        4        9 ar       
      12        4        5 ar       
      13        5        6 ar       
      14        5       38 1        
      15        6        7 ar       
      16        6       39 1        
      17        7        8 ar       
      18        7       10 1        
      19        8        9 ar       
      20        8       40 1        
      21        9       41 1        
      22       10       11 1        
      23       11       12 1        
      24       11       42 1        
      25       11       43 1        
      26       12       13 2        
      27       12       14 1        
      28       14       15 1        
      29       15       16 1        
      30       15       44 1        
      31       15       45 1        
      32       16       17 2        
      33       16       18 am       
      34       18       19 1        
      35       18       20 1        
      36       19       46 1        
      37       19       47 1        
      38       19       48 1        
      39       20       21 1        
      40       20       49 1        
      41       20       50 1        
      42       21       22 2        
      43       21       23 am       
      44       23       24 1        
      45       23       51 1        
      46       24       29 ar       
      47       24       25 ar       
      48       25       26 ar       
      49       25       52 1        
      50       26       27 ar       
      51       26       53 1        
      52       27       28 ar       
      53       27       54 1        
      54       28       29 ar       
      55       28       55 1        
      56       29       30 1        

