#        1GCZ_R01_S0001_C0000_L00005_S0001_C0047_G0010_E0001.mol2
#        Tue Jun  6 09:56:09 2017
#        Descriptor:     12    22    19    11     7    12
#        Energy - RMSD - RMSD MassCentre:     -71.8232    999.9999    999.9999
#        Receptor:       1  Surface Point:     1  Conformer:     0
#        Ligand:         5  Surface Point:     1  Conformer:    47
#        BUDE Formal Charge: 0
#        ATOM Count: 55
#        Heavy ATOM Count: 30
@<TRIPOS>MOLECULE
ZINC61464195_1GCZ_R01_S0001_C0000_L00005_S0001_C0047_G0010_E0001
 55 56 0 0 0
SMALL
USER_CHARGES
@<TRIPOS>ATOM
       1 C1        -1.1183    0.7562   -0.8305 C.3       1 <0>        -0.1456 
       2 C2        -0.4209   -0.3209   -0.0047 C.3       1 <0>        -0.0579 
       3 C3         0.8141   -0.8160   -0.7519 C.3       1 <0>        -0.1456 
       4 C4        -0.0044    0.2576    1.3264 C.ar      1 <0>        -0.0771 
       5 C5        -0.7669    1.3002    1.8660 C.ar      1 <0>        -0.0943 
       6 C6        -0.4693    1.7922    3.1425 C.ar      1 <0>        -0.0923 
       7 C7         0.5821    1.2450    3.8875 C.ar      1 <0>        -0.1041 
       8 C8         1.3829    0.2383    3.3352 C.ar      1 <0>        -0.1315 
       9 C9         1.1000   -0.2248    2.0447 C.ar      1 <0>        -0.0969 
      10 S1         0.8982    1.8359    5.5258 S.3       1 <0>        -0.0341 
      11 C10       -0.0600    0.8520    6.7199 C.3       1 <0>        -0.1267 
      12 C11        0.3623   -0.5951    6.6321 C.2       1 <0>         0.4864 
      13 O1        -0.3132   -1.3805    6.0365 O.2       1 <0>        -0.4815 
      14 O2         1.5038   -1.0019    7.2271 O.3       1 <0>        -0.3231 
      15 C12        1.8627   -2.3817    7.1169 C.3       1 <0>         0.0526 
      16 C13        3.1623   -2.6226    7.8470 C.2       1 <0>         0.5250 
      17 O3         3.2091   -3.4398    8.7652 O.2       1 <0>        -0.5082 
      18 N1         4.2564   -1.9519    7.4980 N.am      1 <0>        -0.5981 
      19 C14        5.5208   -2.1877    8.2098 C.3       1 <0>         0.0731 
      20 C15        4.2006   -0.9754    6.4006 C.3       1 <0>         0.1010 
      21 C16        5.4230   -1.1299    5.5278 C.2       1 <0>         0.4997 
      22 O4         6.1141   -0.1486    5.2588 O.2       1 <0>        -0.5061 
      23 N2         5.7519   -2.3271    5.0506 N.am      1 <0>        -0.6702 
      24 C17        6.8975   -2.4718    4.2327 C.ar      1 <0>         0.1553 
      25 C18        7.4326   -1.3585    3.5740 C.ar      1 <0>        -0.1106 
      26 C19        8.5704   -1.5052    2.7715 C.ar      1 <0>        -0.0959 
      27 C20        9.1680   -2.7594    2.6196 C.ar      1 <0>        -0.1208 
      28 C21        8.6257   -3.8759    3.2671 C.ar      1 <0>        -0.0919 
      29 C22        7.4927   -3.7293    4.0763 C.ar      1 <0>        -0.0639 
      30 Cl1        6.8131   -5.1151    4.8795 Cl        1 <0>        -0.0632 
      31 H1        -0.4305    1.5811   -1.0045 H         1 <0>         0.0596 
      32 H2        -1.4302    0.3358   -1.7843 H         1 <0>         0.0563 
      33 H3        -1.9907    1.1183   -0.2904 H         1 <0>         0.0575 
      34 H4        -1.1036   -1.1518    0.1595 H         1 <0>         0.0784 
      35 H5         1.3035   -1.5926   -0.1679 H         1 <0>         0.0596 
      36 H6         1.5023    0.0131   -0.9030 H         1 <0>         0.0574 
      37 H7         0.5155   -1.2207   -1.7168 H         1 <0>         0.0563 
      38 H8        -1.5959    1.7242    1.3189 H         1 <0>         0.1285 
      39 H9        -1.0308    2.5914    3.6032 H         1 <0>         0.1293 
      40 H10        2.2022   -0.1612    3.9145 H         1 <0>         0.1227 
      41 H11        1.7494   -0.9761    1.6204 H         1 <0>         0.1262 
      42 H12        0.1237    1.2224    7.7264 H         1 <0>         0.1329 
      43 H13       -1.1204    0.9342    6.4905 H         1 <0>         0.1329 
      44 H14        1.9831   -2.6430    6.0676 H         1 <0>         0.1063 
      45 H15        1.0808   -2.9969    7.5571 H         1 <0>         0.1054 
      46 H16        5.8136   -3.2290    8.0924 H         1 <0>         0.0686 
      47 H17        6.2943   -1.5438    7.7966 H         1 <0>         0.0794 
      48 H18        5.3884   -1.9645    9.2665 H         1 <0>         0.0778 
      49 H19        3.3057   -1.1492    5.8066 H         1 <0>         0.1198 
      50 H20        4.1733    0.0312    6.8129 H         1 <0>         0.1233 
      51 H21        5.1837   -3.1322    5.2723 H         1 <0>         0.4142 
      52 H22        6.9751   -0.3867    3.6870 H         1 <0>         0.1473 
      53 H23        8.9862   -0.6435    2.2701 H         1 <0>         0.1337 
      54 H24       10.0480   -2.8713    2.0036 H         1 <0>         0.1349 
      55 H25        9.0825   -4.8470    3.1456 H         1 <0>         0.1385 
@<TRIPOS>BOND
       1        1        2 1        
       2        1       31 1        
       3        1       32 1        
       4        1       33 1        
       5        2        3 1        
       6        2        4 1        
       7        2       34 1        
       8        3       35 1        
       9        3       36 1        
      10        3       37 1        
      11        4        9 ar       
      12        4        5 ar       
      13        5        6 ar       
      14        5       38 1        
      15        6        7 ar       
      16        6       39 1        
      17        7        8 ar       
      18        7       10 1        
      19        8        9 ar       
      20        8       40 1        
      21        9       41 1        
      22       10       11 1        
      23       11       12 1        
      24       11       42 1        
      25       11       43 1        
      26       12       13 2        
      27       12       14 1        
      28       14       15 1        
      29       15       16 1        
      30       15       44 1        
      31       15       45 1        
      32       16       17 2        
      33       16       18 am       
      34       18       19 1        
      35       18       20 1        
      36       19       46 1        
      37       19       47 1        
      38       19       48 1        
      39       20       21 1        
      40       20       49 1        
      41       20       50 1        
      42       21       22 2        
      43       21       23 am       
      44       23       24 1        
      45       23       51 1        
      46       24       29 ar       
      47       24       25 ar       
      48       25       26 ar       
      49       25       52 1        
      50       26       27 ar       
      51       26       53 1        
      52       27       28 ar       
      53       27       54 1        
      54       28       29 ar       
      55       28       55 1        
      56       29       30 1        

