#        1GCZ_R01_S0001_C0000_L00005_S0001_C0047_G0010_E0001.mol2
#        Tue Jun  6 14:07:11 2017
#        Descriptor:     13    22    19    11     6    12
#        Energy - RMSD - RMSD MassCentre:     -66.8442    999.9999    999.9999
#        Receptor:       1  Surface Point:     1  Conformer:     0
#        Ligand:         5  Surface Point:     1  Conformer:    47
#        BUDE Formal Charge: 0
#        ATOM Count: 55
#        Heavy ATOM Count: 30
@<TRIPOS>MOLECULE
ZINC61464195_1GCZ_R01_S0001_C0000_L00005_S0001_C0047_G0010_E0001
 55 56 0 0 0
SMALL
USER_CHARGES
@<TRIPOS>ATOM
       1 C1        -0.9686    0.8225   -0.4342 C.3       1 <0>        -0.1456 
       2 C2        -0.3846   -0.4246    0.2233 C.3       1 <0>        -0.0579 
       3 C3         0.7745   -0.9494   -0.6191 C.3       1 <0>        -0.1456 
       4 C4         0.1155   -0.0767    1.6049 C.ar      1 <0>        -0.0771 
       5 C5        -0.5156    0.9629    2.2982 C.ar      1 <0>        -0.0943 
       6 C6        -0.1441    1.2459    3.6180 C.ar      1 <0>        -0.0923 
       7 C7         0.8502    0.4926    4.2533 C.ar      1 <0>        -0.1041 
       8 C8         1.5231   -0.5142    3.5510 C.ar      1 <0>        -0.1315 
       9 C9         1.1694   -0.7685    2.2206 C.ar      1 <0>        -0.0969 
      10 S1         1.2568    0.8232    5.9440 S.3       1 <0>        -0.0341 
      11 C10        0.2123   -0.1986    7.0291 C.3       1 <0>        -0.1267 
      12 C11        0.4668   -1.6590    6.7415 C.2       1 <0>         0.4864 
      13 O1        -0.3025   -2.2794    6.0699 O.2       1 <0>        -0.4815 
      14 O2         1.5642   -2.2641    7.2437 O.3       1 <0>        -0.3231 
      15 C12        1.7629   -3.6482    6.9446 C.3       1 <0>         0.0526 
      16 C13        3.0382   -4.1253    7.5973 C.2       1 <0>         0.5250 
      17 O3         3.0066   -5.0569    8.3999 O.2       1 <0>        -0.5082 
      18 N1         4.1955   -3.5388    7.3051 N.am      1 <0>        -0.5981 
      19 C14        5.4361   -4.0044    7.9414 C.3       1 <0>         0.0731 
      20 C15        4.2333   -2.4256    6.3459 C.3       1 <0>         0.1010 
      21 C16        5.4165   -2.5968    5.4235 C.2       1 <0>         0.4997 
      22 O4         6.2098   -1.6707    5.2631 O.2       1 <0>        -0.5061 
      23 N2         5.6003   -3.7492    4.7853 N.am      1 <0>        -0.6702 
      24 C17        6.7091   -3.9097    3.9210 C.ar      1 <0>         0.1553 
      25 C18        7.3563   -2.7848    3.3962 C.ar      1 <0>        -0.1106 
      26 C19        8.4574   -2.9484    2.5472 C.ar      1 <0>        -0.0959 
      27 C20        8.9068   -4.2296    2.2158 C.ar      1 <0>        -0.1208 
      28 C21        8.2519   -5.3554    2.7292 C.ar      1 <0>        -0.0919 
      29 C22        7.1556   -5.1933    3.5847 C.ar      1 <0>        -0.0639 
      30 Cl1        6.3364   -6.5899    4.2218 Cl        1 <0>        -0.0632 
      31 H1        -0.1947    1.5823   -0.5206 H         1 <0>         0.0596 
      32 H2        -1.3411    0.5689   -1.4245 H         1 <0>         0.0563 
      33 H3        -1.7859    1.2037    0.1746 H         1 <0>         0.0575 
      34 H4        -1.1543   -1.1897    0.2990 H         1 <0>         0.0784 
      35 H5         1.1820   -1.8455   -0.1559 H         1 <0>         0.0596 
      36 H6         1.5496   -0.1885   -0.6823 H         1 <0>         0.0574 
      37 H7         0.4169   -1.1875   -1.6187 H         1 <0>         0.0563 
      38 H8        -1.2997    1.5442    1.8362 H         1 <0>         0.1285 
      39 H9        -0.6043    2.0340    4.1954 H         1 <0>         0.1293 
      40 H10        2.3010   -1.0746    4.0483 H         1 <0>         0.1227 
      41 H11        1.7229   -1.5240    1.6828 H         1 <0>         0.1262 
      42 H12        0.4526    0.0129    8.0690 H         1 <0>         0.1329 
      43 H13       -0.8354    0.0295    6.8447 H         1 <0>         0.1329 
      44 H14        1.8364   -3.7801    5.8670 H         1 <0>         0.1063 
      45 H15        0.9233   -4.2264    7.3249 H         1 <0>         0.1054 
      46 H16        5.6074   -5.0469    7.6811 H         1 <0>         0.0686 
      47 H17        6.2709   -3.4007    7.5918 H         1 <0>         0.0794 
      48 H18        5.3465   -3.9099    9.0217 H         1 <0>         0.0778 
      49 H19        3.3152   -2.4196    5.7618 H         1 <0>         0.1198 
      50 H20        4.3265   -1.4855    6.8858 H         1 <0>         0.1233 
      51 H21        4.9482   -4.5091    4.9178 H         1 <0>         0.4142 
      52 H22        7.0136   -1.7921    3.6483 H         1 <0>         0.1473 
      53 H23        8.9601   -2.0790    2.1494 H         1 <0>         0.1337 
      54 H24        9.7587   -4.3552    1.5639 H         1 <0>         0.1349 
      55 H25        8.5939   -6.3462    2.4690 H         1 <0>         0.1385 
@<TRIPOS>BOND
       1        1        2 1        
       2        1       31 1        
       3        1       32 1        
       4        1       33 1        
       5        2        3 1        
       6        2        4 1        
       7        2       34 1        
       8        3       35 1        
       9        3       36 1        
      10        3       37 1        
      11        4        9 ar       
      12        4        5 ar       
      13        5        6 ar       
      14        5       38 1        
      15        6        7 ar       
      16        6       39 1        
      17        7        8 ar       
      18        7       10 1        
      19        8        9 ar       
      20        8       40 1        
      21        9       41 1        
      22       10       11 1        
      23       11       12 1        
      24       11       42 1        
      25       11       43 1        
      26       12       13 2        
      27       12       14 1        
      28       14       15 1        
      29       15       16 1        
      30       15       44 1        
      31       15       45 1        
      32       16       17 2        
      33       16       18 am       
      34       18       19 1        
      35       18       20 1        
      36       19       46 1        
      37       19       47 1        
      38       19       48 1        
      39       20       21 1        
      40       20       49 1        
      41       20       50 1        
      42       21       22 2        
      43       21       23 am       
      44       23       24 1        
      45       23       51 1        
      46       24       29 ar       
      47       24       25 ar       
      48       25       26 ar       
      49       25       52 1        
      50       26       27 ar       
      51       26       53 1        
      52       27       28 ar       
      53       27       54 1        
      54       28       29 ar       
      55       28       55 1        
      56       29       30 1        

