#        1GCZ_R01_S0001_C0000_L00005_S0001_C0048_G0010_E0001.mol2
#        Tue Jun  6 09:56:10 2017
#        Descriptor:     19    13    30    10     9    12
#        Energy - RMSD - RMSD MassCentre:     -79.5142    999.9999    999.9999
#        Receptor:       1  Surface Point:     1  Conformer:     0
#        Ligand:         5  Surface Point:     1  Conformer:    48
#        BUDE Formal Charge: 0
#        ATOM Count: 55
#        Heavy ATOM Count: 30
@<TRIPOS>MOLECULE
ZINC61464195_1GCZ_R01_S0001_C0000_L00005_S0001_C0048_G0010_E0001
 55 56 0 0 0
SMALL
USER_CHARGES
@<TRIPOS>ATOM
       1 C1         0.5173   -0.9966   -2.7101 C.3       1 <0>        -0.1456 
       2 C2         0.2448    0.3819   -2.1150 C.3       1 <0>        -0.0579 
       3 C3        -0.8954    1.0500   -2.8780 C.3       1 <0>        -0.1456 
       4 C4        -0.1409    0.2349   -0.6626 C.ar      1 <0>        -0.0771 
       5 C5         0.3748   -0.8503    0.0557 C.ar      1 <0>        -0.0943 
       6 C6         0.1189   -0.9621    1.4275 C.ar      1 <0>        -0.0923 
       7 C7        -0.6442    0.0072    2.0893 C.ar      1 <0>        -0.1041 
       8 C8        -1.2076    1.0674    1.3696 C.ar      1 <0>        -0.1315 
       9 C9        -0.9754    1.1536   -0.0084 C.ar      1 <0>        -0.0969 
      10 S1        -0.8987   -0.1177    3.8365 S.3       1 <0>        -0.0341 
      11 C10        0.4312    0.7687    4.7072 C.3       1 <0>        -0.1267 
      12 C11        1.7617    0.1442    4.3610 C.2       1 <0>         0.4864 
      13 O1         2.4753    0.6641    3.5557 O.2       1 <0>        -0.4815 
      14 O2         2.1453   -1.0023    4.9617 O.3       1 <0>        -0.3231 
      15 C12        3.4136   -1.5563    4.6018 C.3       1 <0>         0.0526 
      16 C13        4.5104   -0.5926    4.9871 C.2       1 <0>         0.5250 
      17 O3         5.2781   -0.1603    4.1288 O.2       1 <0>        -0.5082 
      18 N1         4.6468   -0.2109    6.2537 N.am      1 <0>        -0.5981 
      19 C14        3.7292   -0.7275    7.2794 C.3       1 <0>         0.0731 
      20 C15        5.7152    0.7273    6.6271 C.3       1 <0>         0.1010 
      21 C16        5.1689    1.7528    7.5916 C.2       1 <0>         0.4997 
      22 O4         5.7477    1.9650    8.6559 O.2       1 <0>        -0.5061 
      23 N2         4.0623    2.4258    7.2896 N.am      1 <0>        -0.6702 
      24 C17        3.5504    3.3867    8.1933 C.ar      1 <0>         0.1553 
      25 C18        3.9158    3.3421    9.5440 C.ar      1 <0>        -0.1106 
      26 C19        3.4125    4.2992   10.4332 C.ar      1 <0>        -0.0959 
      27 C20        2.5410    5.2930    9.9788 C.ar      1 <0>        -0.1208 
      28 C21        2.1642    5.3304    8.6310 C.ar      1 <0>        -0.0919 
      29 C22        2.6730    4.3788    7.7391 C.ar      1 <0>        -0.0639 
      30 Cl1        2.2040    4.4194    6.0640 Cl        1 <0>        -0.0632 
      31 H1        -0.3832   -1.6036   -2.6444 H         1 <0>         0.0596 
      32 H2         0.8082   -0.8897   -3.7530 H         1 <0>         0.0563 
      33 H3         1.3209   -1.4775   -2.1563 H         1 <0>         0.0575 
      34 H4         1.1409    0.9942   -2.1914 H         1 <0>         0.0784 
      35 H5        -1.0803    2.0377   -2.4609 H         1 <0>         0.0596 
      36 H6        -1.7945    0.4438   -2.7891 H         1 <0>         0.0574 
      37 H7        -0.6228    1.1438   -3.9272 H         1 <0>         0.0563 
      38 H8         0.9834   -1.5994   -0.4287 H         1 <0>         0.1285 
      39 H9         0.4982   -1.7777    2.0253 H         1 <0>         0.1293 
      40 H10       -1.8096    1.7974    1.8902 H         1 <0>         0.1227 
      41 H11       -1.4469    1.9574   -0.5541 H         1 <0>         0.1262 
      42 H12        0.4314    1.8134    4.4027 H         1 <0>         0.1329 
      43 H13        0.2689    0.7033    5.7810 H         1 <0>         0.1329 
      44 H14        3.4433   -1.7281    3.5279 H         1 <0>         0.1063 
      45 H15        3.5599   -2.4991    5.1247 H         1 <0>         0.1054 
      46 H16        3.8162   -1.8108    7.3304 H         1 <0>         0.0686 
      47 H17        3.9858   -0.2965    8.2448 H         1 <0>         0.0794 
      48 H18        2.7076   -0.4569    7.0206 H         1 <0>         0.0778 
      49 H19        6.5281    0.1804    7.1003 H         1 <0>         0.1198 
      50 H20        6.0851    1.2283    5.7350 H         1 <0>         0.1233 
      51 H21        3.5878    2.2507    6.4153 H         1 <0>         0.4142 
      52 H22        4.5886    2.5764    9.9013 H         1 <0>         0.1473 
      53 H23        3.7016    4.2676   11.4733 H         1 <0>         0.1337 
      54 H24        2.1562    6.0335   10.6643 H         1 <0>         0.1349 
      55 H25        1.4858    6.0938    8.2796 H         1 <0>         0.1385 
@<TRIPOS>BOND
       1        1        2 1        
       2        1       31 1        
       3        1       32 1        
       4        1       33 1        
       5        2        3 1        
       6        2        4 1        
       7        2       34 1        
       8        3       35 1        
       9        3       36 1        
      10        3       37 1        
      11        4        9 ar       
      12        4        5 ar       
      13        5        6 ar       
      14        5       38 1        
      15        6        7 ar       
      16        6       39 1        
      17        7        8 ar       
      18        7       10 1        
      19        8        9 ar       
      20        8       40 1        
      21        9       41 1        
      22       10       11 1        
      23       11       12 1        
      24       11       42 1        
      25       11       43 1        
      26       12       13 2        
      27       12       14 1        
      28       14       15 1        
      29       15       16 1        
      30       15       44 1        
      31       15       45 1        
      32       16       17 2        
      33       16       18 am       
      34       18       19 1        
      35       18       20 1        
      36       19       46 1        
      37       19       47 1        
      38       19       48 1        
      39       20       21 1        
      40       20       49 1        
      41       20       50 1        
      42       21       22 2        
      43       21       23 am       
      44       23       24 1        
      45       23       51 1        
      46       24       29 ar       
      47       24       25 ar       
      48       25       26 ar       
      49       25       52 1        
      50       26       27 ar       
      51       26       53 1        
      52       27       28 ar       
      53       27       54 1        
      54       28       29 ar       
      55       28       55 1        
      56       29       30 1        

