#        1GCZ_R01_S0001_C0000_L00005_S0001_C0048_G0010_E0001.mol2
#        Tue Jun  6 14:07:13 2017
#        Descriptor:      6     1     1    12     5    13
#        Energy - RMSD - RMSD MassCentre:     -63.3664    999.9999    999.9999
#        Receptor:       1  Surface Point:     1  Conformer:     0
#        Ligand:         5  Surface Point:     1  Conformer:    48
#        BUDE Formal Charge: 0
#        ATOM Count: 55
#        Heavy ATOM Count: 30
@<TRIPOS>MOLECULE
ZINC61464195_1GCZ_R01_S0001_C0000_L00005_S0001_C0048_G0010_E0001
 55 56 0 0 0
SMALL
USER_CHARGES
@<TRIPOS>ATOM
       1 C1        -2.2369    0.1564    3.4676 C.3       1 <0>        -0.1456 
       2 C2        -0.8703    0.5966    2.9505 C.3       1 <0>        -0.0579 
       3 C3        -0.9113    2.0817    2.6026 C.3       1 <0>        -0.1456 
       4 C4         0.1711    0.3590    4.0176 C.ar      1 <0>        -0.0771 
       5 C5        -0.0333   -0.6871    4.9250 C.ar      1 <0>        -0.0943 
       6 C6         0.9578   -0.9986    5.8634 C.ar      1 <0>        -0.0923 
       7 C7         2.1561   -0.2757    5.8978 C.ar      1 <0>        -0.1041 
       8 C8         2.3477    0.8054    5.0294 C.ar      1 <0>        -0.1315 
       9 C9         1.3376    1.1322    4.1168 C.ar      1 <0>        -0.0969 
      10 S1         3.4230   -0.7299    7.0475 S.3       1 <0>        -0.0341 
      11 C10        4.5320   -1.9495    6.2760 C.3       1 <0>        -0.1267 
      12 C11        3.7429   -3.1824    5.9056 C.2       1 <0>         0.4864 
      13 O1         3.4023   -3.3572    4.7736 O.2       1 <0>        -0.4815 
      14 O2         3.4221   -4.0880    6.8541 O.3       1 <0>        -0.3231 
      15 C12        2.6739   -5.2398    6.4559 C.3       1 <0>         0.0526 
      16 C13        3.4866   -6.0531    5.4770 C.2       1 <0>         0.5250 
      17 O3         3.0442   -6.2827    4.3525 O.2       1 <0>        -0.5082 
      18 N1         4.6803   -6.5213    5.8299 N.am      1 <0>        -0.5981 
      19 C14        5.2090   -6.2469    7.1737 C.3       1 <0>         0.0731 
      20 C15        5.4701   -7.3130    4.8757 C.3       1 <0>         0.1010 
      21 C16        6.9140   -6.8746    4.9330 C.2       1 <0>         0.4997 
      22 O4         7.8039   -7.7091    5.0888 O.2       1 <0>        -0.5061 
      23 N2         7.2225   -5.5863    4.8150 N.am      1 <0>        -0.6702 
      24 C17        8.5754   -5.1754    4.8686 C.ar      1 <0>         0.1553 
      25 C18        9.5362   -6.0052    5.4587 C.ar      1 <0>        -0.1106 
      26 C19       10.8749   -5.5978    5.5031 C.ar      1 <0>        -0.0959 
      27 C20       11.2532   -4.3631    4.9684 C.ar      1 <0>        -0.1208 
      28 C21       10.2910   -3.5265    4.3903 C.ar      1 <0>        -0.0919 
      29 C22        8.9533   -3.9362    4.3380 C.ar      1 <0>        -0.0639 
      30 Cl1        7.7536   -2.8976    3.6239 Cl        1 <0>        -0.0632 
      31 H1        -2.4957    0.7401    4.3486 H         1 <0>         0.0596 
      32 H2        -2.9851    0.3152    2.6939 H         1 <0>         0.0563 
      33 H3        -2.2024   -0.8993    3.7285 H         1 <0>         0.0575 
      34 H4        -0.6159    0.0222    2.0621 H         1 <0>         0.0784 
      35 H5         0.0598    2.3915    2.2223 H         1 <0>         0.0596 
      36 H6        -1.1520    2.6560    3.4949 H         1 <0>         0.0574 
      37 H7        -1.6711    2.2549    1.8433 H         1 <0>         0.0563 
      38 H8        -0.9407   -1.2724    4.9042 H         1 <0>         0.1285 
      39 H9         0.8488   -1.7989    6.5805 H         1 <0>         0.1293 
      40 H10        3.2696    1.3658    5.0802 H         1 <0>         0.1227 
      41 H11        1.4869    1.9909    3.4790 H         1 <0>         0.1262 
      42 H12        4.9760   -1.5210    5.3797 H         1 <0>         0.1329 
      43 H13        5.3185   -2.2200    6.9773 H         1 <0>         0.1329 
      44 H14        1.7464   -4.9247    5.9825 H         1 <0>         0.1063 
      45 H15        2.4477   -5.8463    7.3304 H         1 <0>         0.1054 
      46 H16        4.5399   -6.6710    7.9195 H         1 <0>         0.0686 
      47 H17        6.1952   -6.6954    7.2733 H         1 <0>         0.0794 
      48 H18        5.2824   -5.1714    7.3212 H         1 <0>         0.0778 
      49 H19        5.4001   -8.3674    5.1348 H         1 <0>         0.1198 
      50 H20        5.0834   -7.1594    3.8704 H         1 <0>         0.1233 
      51 H21        6.4908   -4.9018    4.6870 H         1 <0>         0.4142 
      52 H22        9.2501   -6.9603    5.8739 H         1 <0>         0.1473 
      53 H23       11.6159   -6.2428    5.9520 H         1 <0>         0.1337 
      54 H24       12.2866   -4.0510    4.9994 H         1 <0>         0.1349 
      55 H25       10.5807   -2.5693    3.9824 H         1 <0>         0.1385 
@<TRIPOS>BOND
       1        1        2 1        
       2        1       31 1        
       3        1       32 1        
       4        1       33 1        
       5        2        3 1        
       6        2        4 1        
       7        2       34 1        
       8        3       35 1        
       9        3       36 1        
      10        3       37 1        
      11        4        9 ar       
      12        4        5 ar       
      13        5        6 ar       
      14        5       38 1        
      15        6        7 ar       
      16        6       39 1        
      17        7        8 ar       
      18        7       10 1        
      19        8        9 ar       
      20        8       40 1        
      21        9       41 1        
      22       10       11 1        
      23       11       12 1        
      24       11       42 1        
      25       11       43 1        
      26       12       13 2        
      27       12       14 1        
      28       14       15 1        
      29       15       16 1        
      30       15       44 1        
      31       15       45 1        
      32       16       17 2        
      33       16       18 am       
      34       18       19 1        
      35       18       20 1        
      36       19       46 1        
      37       19       47 1        
      38       19       48 1        
      39       20       21 1        
      40       20       49 1        
      41       20       50 1        
      42       21       22 2        
      43       21       23 am       
      44       23       24 1        
      45       23       51 1        
      46       24       29 ar       
      47       24       25 ar       
      48       25       26 ar       
      49       25       52 1        
      50       26       27 ar       
      51       26       53 1        
      52       27       28 ar       
      53       27       54 1        
      54       28       29 ar       
      55       28       55 1        
      56       29       30 1        

