#        1GCZ_R01_S0001_C0000_L00005_S0001_C0049_G0010_E0001.mol2
#        Tue Jun  6 09:56:10 2017
#        Descriptor:     32    31     2    12     8    14
#        Energy - RMSD - RMSD MassCentre:     -50.4996    999.9999    999.9999
#        Receptor:       1  Surface Point:     1  Conformer:     0
#        Ligand:         5  Surface Point:     1  Conformer:    49
#        BUDE Formal Charge: 0
#        ATOM Count: 55
#        Heavy ATOM Count: 30
@<TRIPOS>MOLECULE
ZINC61464195_1GCZ_R01_S0001_C0000_L00005_S0001_C0049_G0010_E0001
 55 56 0 0 0
SMALL
USER_CHARGES
@<TRIPOS>ATOM
       1 C1         2.3342    7.0052    8.7429 C.3       1 <0>        -0.1456 
       2 C2         1.0180    6.3178    8.3914 C.3       1 <0>        -0.0579 
       3 C3         0.2491    7.1723    7.3877 C.3       1 <0>        -0.1456 
       4 C4         1.3039    4.9652    7.7846 C.ar      1 <0>        -0.0771 
       5 C5         2.4687    4.2940    8.1753 C.ar      1 <0>        -0.0943 
       6 C6         2.7145    2.9969    7.7094 C.ar      1 <0>        -0.0923 
       7 C7         1.8007    2.3619    6.8600 C.ar      1 <0>        -0.1041 
       8 C8         0.6595    3.0445    6.4222 C.ar      1 <0>        -0.1315 
       9 C9         0.4381    4.3538    6.8655 C.ar      1 <0>        -0.0969 
      10 S1         2.0978    0.6971    6.3373 S.3       1 <0>        -0.0341 
      11 C10        1.3362   -0.4549    7.5227 C.3       1 <0>        -0.1267 
      12 C11        1.5897   -1.8751    7.0767 C.2       1 <0>         0.4864 
      13 O1         0.7286   -2.4911    6.5227 O.2       1 <0>        -0.4815 
      14 O2         2.7901   -2.4494    7.3041 O.3       1 <0>        -0.3231 
      15 C12        2.9835   -3.7961    6.8639 C.3       1 <0>         0.0526 
      16 C13        4.3829   -4.2430    7.2136 C.2       1 <0>         0.5250 
      17 O3         4.5523   -5.2277    7.9308 O.2       1 <0>        -0.5082 
      18 N1         5.4322   -3.5725    6.7467 N.am      1 <0>        -0.5981 
      19 C14        6.7937   -4.0088    7.0880 C.3       1 <0>         0.0731 
      20 C15        5.2297   -2.3957    5.8893 C.3       1 <0>         0.1010 
      21 C16        6.2104   -2.4351    4.7418 C.2       1 <0>         0.4997 
      22 O4         6.9154   -1.4562    4.5020 O.2       1 <0>        -0.5061 
      23 N2         6.3114   -3.5285    3.9913 N.am      1 <0>        -0.6702 
      24 C17        7.2305   -3.5656    2.9160 C.ar      1 <0>         0.1553 
      25 C18        7.7110   -2.3720    2.3644 C.ar      1 <0>        -0.1106 
      26 C19        8.6257   -2.4135    1.3053 C.ar      1 <0>        -0.0959 
      27 C20        9.0537   -3.6411    0.7923 C.ar      1 <0>        -0.1208 
      28 C21        8.5634   -4.8352    1.3342 C.ar      1 <0>        -0.0919 
      29 C22        7.6548   -4.7953    2.3986 C.ar      1 <0>        -0.0639 
      30 Cl1        7.0398   -6.2770    3.0723 Cl        1 <0>        -0.0632 
      31 H1         2.9238    7.1422    7.8388 H         1 <0>         0.0596 
      32 H2         2.1278    7.9743    9.1924 H         1 <0>         0.0563 
      33 H3         2.8878    6.3883    9.4478 H         1 <0>         0.0575 
      34 H4         0.4220    6.1915    9.2929 H         1 <0>         0.0784 
      35 H5        -0.6947    6.6873    7.1474 H         1 <0>         0.0596 
      36 H6         0.8402    7.2860    6.4815 H         1 <0>         0.0574 
      37 H7         0.0547    8.1516    7.8200 H         1 <0>         0.0563 
      38 H8         3.1781    4.7553    8.8463 H         1 <0>         0.1285 
      39 H9         3.5956    2.4368    7.9860 H         1 <0>         0.1293 
      40 H10       -0.0270    2.5485    5.7521 H         1 <0>         0.1227 
      41 H11       -0.4281    4.8781    6.4897 H         1 <0>         0.1262 
      42 H12        1.7707   -0.3019    8.5084 H         1 <0>         0.1329 
      43 H13        0.2640   -0.2751    7.5664 H         1 <0>         0.1329 
      44 H14        2.8453   -3.8492    5.7859 H         1 <0>         0.1063 
      45 H15        2.2625   -4.4461    7.3551 H         1 <0>         0.1054 
      46 H16        6.9536   -5.0194    6.7179 H         1 <0>         0.0686 
      47 H17        7.5152   -3.3357    6.6298 H         1 <0>         0.0794 
      48 H18        6.9184   -3.9939    8.1688 H         1 <0>         0.0778 
      49 H19        4.2139   -2.4023    5.4995 H         1 <0>         0.1198 
      50 H20        5.3892   -1.4911    6.4726 H         1 <0>         0.1233 
      51 H21        5.7320   -4.3319    4.1892 H         1 <0>         0.4142 
      52 H22        7.3839   -1.4202    2.7562 H         1 <0>         0.1473 
      53 H23        9.0011   -1.4915    0.8860 H         1 <0>         0.1337 
      54 H24        9.7623   -3.6726   -0.0222 H         1 <0>         0.1349 
      55 H25        8.8881   -5.7846    0.9346 H         1 <0>         0.1385 
@<TRIPOS>BOND
       1        1        2 1        
       2        1       31 1        
       3        1       32 1        
       4        1       33 1        
       5        2        3 1        
       6        2        4 1        
       7        2       34 1        
       8        3       35 1        
       9        3       36 1        
      10        3       37 1        
      11        4        9 ar       
      12        4        5 ar       
      13        5        6 ar       
      14        5       38 1        
      15        6        7 ar       
      16        6       39 1        
      17        7        8 ar       
      18        7       10 1        
      19        8        9 ar       
      20        8       40 1        
      21        9       41 1        
      22       10       11 1        
      23       11       12 1        
      24       11       42 1        
      25       11       43 1        
      26       12       13 2        
      27       12       14 1        
      28       14       15 1        
      29       15       16 1        
      30       15       44 1        
      31       15       45 1        
      32       16       17 2        
      33       16       18 am       
      34       18       19 1        
      35       18       20 1        
      36       19       46 1        
      37       19       47 1        
      38       19       48 1        
      39       20       21 1        
      40       20       49 1        
      41       20       50 1        
      42       21       22 2        
      43       21       23 am       
      44       23       24 1        
      45       23       51 1        
      46       24       29 ar       
      47       24       25 ar       
      48       25       26 ar       
      49       25       52 1        
      50       26       27 ar       
      51       26       53 1        
      52       27       28 ar       
      53       27       54 1        
      54       28       29 ar       
      55       28       55 1        
      56       29       30 1        

