#        1GCZ_R01_S0001_C0000_L00005_S0001_C0049_G0010_E0001.mol2
#        Tue Jun  6 14:07:15 2017
#        Descriptor:     13     4    10    11     9    15
#        Energy - RMSD - RMSD MassCentre:     -57.8371    999.9999    999.9999
#        Receptor:       1  Surface Point:     1  Conformer:     0
#        Ligand:         5  Surface Point:     1  Conformer:    49
#        BUDE Formal Charge: 0
#        ATOM Count: 55
#        Heavy ATOM Count: 30
@<TRIPOS>MOLECULE
ZINC61464195_1GCZ_R01_S0001_C0000_L00005_S0001_C0049_G0010_E0001
 55 56 0 0 0
SMALL
USER_CHARGES
@<TRIPOS>ATOM
       1 C1        10.4305    1.8227    5.1339 C.3       1 <0>        -0.1456 
       2 C2        10.2442    0.4155    5.6938 C.3       1 <0>        -0.0579 
       3 C3        11.1736    0.2149    6.8875 C.3       1 <0>        -0.1456 
       4 C4         8.8119    0.2365    6.1368 C.ar      1 <0>        -0.0771 
       5 C5         7.8156    0.9645    5.4755 C.ar      1 <0>        -0.0943 
       6 C6         6.4692    0.7488    5.7926 C.ar      1 <0>        -0.0923 
       7 C7         6.1098   -0.1949    6.7622 C.ar      1 <0>        -0.1041 
       8 C8         7.1011   -0.8896    7.4655 C.ar      1 <0>        -0.1315 
       9 C9         8.4464   -0.6435    7.1665 C.ar      1 <0>        -0.0969 
      10 S1         4.3992   -0.5002    7.0992 S.3       1 <0>        -0.0341 
      11 C10        3.7963   -1.8312    6.0141 C.3       1 <0>        -0.1267 
      12 C11        2.3369   -2.0915    6.3017 C.2       1 <0>         0.4864 
      13 O1         2.0170   -3.0266    6.9733 O.2       1 <0>        -0.4815 
      14 O2         1.3930   -1.2673    5.7996 O.3       1 <0>        -0.3231 
      15 C12        0.0243   -1.5540    6.0987 C.3       1 <0>         0.0526 
      16 C13       -0.8601   -0.5187    5.4459 C.2       1 <0>         0.5250 
      17 O3        -1.7247   -0.8670    4.6434 O.2       1 <0>        -0.5082 
      18 N1        -0.7048    0.7694    5.7381 N.am      1 <0>        -0.5981 
      19 C14       -1.5667    1.7759    5.1018 C.3       1 <0>         0.0731 
      20 C15        0.3284    1.1856    6.6974 C.3       1 <0>         0.1010 
      21 C16       -0.2373    2.2389    7.6197 C.2       1 <0>         0.4997 
      22 O4         0.3617    3.3011    7.7802 O.2       1 <0>        -0.5061 
      23 N2        -1.3830    2.0174    8.2580 N.am      1 <0>        -0.6702 
      24 C17       -1.9131    3.0045    9.1222 C.ar      1 <0>         0.1553 
      25 C18       -1.0774    3.9974    9.6470 C.ar      1 <0>        -0.1106 
      26 C19       -1.6077    4.9762   10.4960 C.ar      1 <0>        -0.0959 
      27 C20       -2.9653    4.9603   10.8274 C.ar      1 <0>        -0.1208 
      28 C21       -3.7992    3.9599   10.3140 C.ar      1 <0>        -0.0919 
      29 C22       -3.2720    2.9851    9.4585 C.ar      1 <0>        -0.0639 
      30 Cl1       -4.3042    1.7376    8.8215 Cl        1 <0>        -0.0632 
      31 H1        10.2074    2.5531    5.9088 H         1 <0>         0.0596 
      32 H2        11.4593    1.9471    4.8024 H         1 <0>         0.0563 
      33 H3         9.7573    1.9692    4.2917 H         1 <0>         0.0575 
      34 H4        10.4791   -0.3161    4.9235 H         1 <0>         0.0784 
      35 H5        11.0489   -0.7929    7.2781 H         1 <0>         0.0596 
      36 H6        10.9284    0.9379    7.6626 H         1 <0>         0.0574 
      37 H7        12.2049    0.3570    6.5711 H         1 <0>         0.0563 
      38 H8         8.0672    1.6827    4.7093 H         1 <0>         0.1285 
      39 H9         5.6649    1.2818    5.3074 H         1 <0>         0.1293 
      40 H10        6.8093   -1.6009    8.2239 H         1 <0>         0.1227 
      41 H11        9.1984   -1.1614    7.7432 H         1 <0>         0.1262 
      42 H12        3.9128   -1.5330    4.9742 H         1 <0>         0.1329 
      43 H13        4.3689   -2.7377    6.1985 H         1 <0>         0.1329 
      44 H14       -0.1247   -1.5300    7.1763 H         1 <0>         0.1063 
      45 H15       -0.2318   -2.5406    5.7184 H         1 <0>         0.1054 
      46 H16       -2.6049    1.5803    5.3622 H         1 <0>         0.0686 
      47 H17       -1.2848    2.7669    5.4514 H         1 <0>         0.0794 
      48 H18       -1.4472    1.7240    4.0216 H         1 <0>         0.0778 
      49 H19        0.6479    0.3250    7.2814 H         1 <0>         0.1198 
      50 H20        1.1798    1.5947    6.1574 H         1 <0>         0.1233 
      51 H21       -1.8741    1.1448    8.1254 H         1 <0>         0.4142 
      52 H22       -0.0273    4.0149    9.3950 H         1 <0>         0.1473 
      53 H23       -0.9626    5.7459   10.8939 H         1 <0>         0.1337 
      54 H24       -3.3747    5.7178   11.4793 H         1 <0>         0.1349 
      55 H25       -4.8473    3.9423   10.5743 H         1 <0>         0.1385 
@<TRIPOS>BOND
       1        1        2 1        
       2        1       31 1        
       3        1       32 1        
       4        1       33 1        
       5        2        3 1        
       6        2        4 1        
       7        2       34 1        
       8        3       35 1        
       9        3       36 1        
      10        3       37 1        
      11        4        9 ar       
      12        4        5 ar       
      13        5        6 ar       
      14        5       38 1        
      15        6        7 ar       
      16        6       39 1        
      17        7        8 ar       
      18        7       10 1        
      19        8        9 ar       
      20        8       40 1        
      21        9       41 1        
      22       10       11 1        
      23       11       12 1        
      24       11       42 1        
      25       11       43 1        
      26       12       13 2        
      27       12       14 1        
      28       14       15 1        
      29       15       16 1        
      30       15       44 1        
      31       15       45 1        
      32       16       17 2        
      33       16       18 am       
      34       18       19 1        
      35       18       20 1        
      36       19       46 1        
      37       19       47 1        
      38       19       48 1        
      39       20       21 1        
      40       20       49 1        
      41       20       50 1        
      42       21       22 2        
      43       21       23 am       
      44       23       24 1        
      45       23       51 1        
      46       24       29 ar       
      47       24       25 ar       
      48       25       26 ar       
      49       25       52 1        
      50       26       27 ar       
      51       26       53 1        
      52       27       28 ar       
      53       27       54 1        
      54       28       29 ar       
      55       28       55 1        
      56       29       30 1        

