#        1GCZ_R01_S0001_C0000_L00005_S0001_C0050_G0010_E0001.mol2
#        Tue Jun  6 09:56:11 2017
#        Descriptor:     31    36    17     5    11    15
#        Energy - RMSD - RMSD MassCentre:     -56.9976    999.9999    999.9999
#        Receptor:       1  Surface Point:     1  Conformer:     0
#        Ligand:         5  Surface Point:     1  Conformer:    50
#        BUDE Formal Charge: 0
#        ATOM Count: 55
#        Heavy ATOM Count: 30
@<TRIPOS>MOLECULE
ZINC61464195_1GCZ_R01_S0001_C0000_L00005_S0001_C0050_G0010_E0001
 55 56 0 0 0
SMALL
USER_CHARGES
@<TRIPOS>ATOM
       1 C1        -1.3071    1.5258    1.7649 C.3       1 <0>        -0.1456 
       2 C2        -2.2503    0.7894    2.7118 C.3       1 <0>        -0.0579 
       3 C3        -2.7840   -0.4649    2.0258 C.3       1 <0>        -0.1456 
       4 C4        -1.5011    0.3975    3.9629 C.ar      1 <0>        -0.0771 
       5 C5        -0.4311    1.2001    4.3759 C.ar      1 <0>        -0.0943 
       6 C6         0.2211    0.9236    5.5834 C.ar      1 <0>        -0.0923 
       7 C7        -0.1925   -0.1465    6.3857 C.ar      1 <0>        -0.1041 
       8 C8        -1.2270   -0.9860    5.9557 C.ar      1 <0>        -0.1315 
       9 C9        -1.8517   -0.7232    4.7306 C.ar      1 <0>        -0.0969 
      10 S1         0.6019   -0.4370    7.9405 S.3       1 <0>        -0.0341 
      11 C10       -0.2677    0.4852    9.2466 C.3       1 <0>        -0.1267 
      12 C11       -0.2146    1.9625    8.9388 C.2       1 <0>         0.4864 
      13 O1         0.5681    2.6643    9.5071 O.2       1 <0>        -0.4815 
      14 O2        -1.0520    2.4909    8.0213 O.3       1 <0>        -0.3231 
      15 C12       -0.9649    3.8948    7.7634 C.3       1 <0>         0.0526 
      16 C13       -1.3167    4.6587    9.0175 C.2       1 <0>         0.5250 
      17 O3        -0.5048    5.4416    9.5084 O.2       1 <0>        -0.5082 
      18 N1        -2.5037    4.4856    9.5918 N.am      1 <0>        -0.5981 
      19 C14       -2.8446    5.2301   10.8125 C.3       1 <0>         0.0731 
      20 C15       -3.4741    3.5501    9.0051 C.3       1 <0>         0.1010 
      21 C16       -4.8496    4.1726    9.0284 C.2       1 <0>         0.4997 
      22 O4        -5.7963    3.5532    9.5111 O.2       1 <0>        -0.5061 
      23 N2        -5.0366    5.3903    8.5272 N.am      1 <0>        -0.6702 
      24 C17       -6.3256    5.9736    8.5491 C.ar      1 <0>         0.1553 
      25 C18       -7.4588    5.1627    8.6824 C.ar      1 <0>        -0.1106 
      26 C19       -8.7317    5.7448    8.7108 C.ar      1 <0>        -0.0959 
      27 C20       -8.8749    7.1305    8.5984 C.ar      1 <0>        -0.1208 
      28 C21       -7.7431    7.9413    8.4515 C.ar      1 <0>        -0.0919 
      29 C22       -6.4691    7.3612    8.4309 C.ar      1 <0>        -0.0639 
      30 Cl1       -5.0601    8.3650    8.2445 Cl        1 <0>        -0.0632 
      31 H1        -0.4835    0.8696    1.4914 H         1 <0>         0.0596 
      32 H2        -1.8503    1.8199    0.8692 H         1 <0>         0.0563 
      33 H3        -0.9163    2.4123    2.2602 H         1 <0>         0.0575 
      34 H4        -3.0810    1.4403    2.9762 H         1 <0>         0.0784 
      35 H5        -3.4659   -0.9825    2.6972 H         1 <0>         0.0596 
      36 H6        -1.9535   -1.1213    1.7746 H         1 <0>         0.0574 
      37 H7        -3.3124   -0.1836    1.1172 H         1 <0>         0.0563 
      38 H8        -0.1074    2.0436    3.7843 H         1 <0>         0.1285 
      39 H9         1.0478    1.5160    5.9468 H         1 <0>         0.1293 
      40 H10       -1.5228   -1.8188    6.5763 H         1 <0>         0.1227 
      41 H11       -2.6233   -1.4014    4.3975 H         1 <0>         0.1262 
      42 H12       -1.3055    0.1616    9.2904 H         1 <0>         0.1329 
      43 H13        0.2122    0.2975   10.2049 H         1 <0>         0.1329 
      44 H14       -1.6596    4.1621    6.9698 H         1 <0>         0.1063 
      45 H15        0.0488    4.1461    7.4588 H         1 <0>         0.1054 
      46 H16       -2.8167    6.2978   10.6052 H         1 <0>         0.0686 
      47 H17       -3.8433    4.9496   11.1406 H         1 <0>         0.0794 
      48 H18       -2.1254    4.9929   11.5939 H         1 <0>         0.0778 
      49 H19       -3.1912    3.3324    7.9772 H         1 <0>         0.1198 
      50 H20       -3.4826    2.6280    9.5827 H         1 <0>         0.1233 
      51 H21       -4.2584    5.8980    8.1312 H         1 <0>         0.4142 
      52 H22       -7.3548    4.0911    8.7693 H         1 <0>         0.1473 
      53 H23       -9.6045    5.1180    8.8212 H         1 <0>         0.1337 
      54 H24       -9.8569    7.5795    8.6243 H         1 <0>         0.1349 
      55 H25       -7.8524    9.0117    8.3580 H         1 <0>         0.1385 
@<TRIPOS>BOND
       1        1        2 1        
       2        1       31 1        
       3        1       32 1        
       4        1       33 1        
       5        2        3 1        
       6        2        4 1        
       7        2       34 1        
       8        3       35 1        
       9        3       36 1        
      10        3       37 1        
      11        4        9 ar       
      12        4        5 ar       
      13        5        6 ar       
      14        5       38 1        
      15        6        7 ar       
      16        6       39 1        
      17        7        8 ar       
      18        7       10 1        
      19        8        9 ar       
      20        8       40 1        
      21        9       41 1        
      22       10       11 1        
      23       11       12 1        
      24       11       42 1        
      25       11       43 1        
      26       12       13 2        
      27       12       14 1        
      28       14       15 1        
      29       15       16 1        
      30       15       44 1        
      31       15       45 1        
      32       16       17 2        
      33       16       18 am       
      34       18       19 1        
      35       18       20 1        
      36       19       46 1        
      37       19       47 1        
      38       19       48 1        
      39       20       21 1        
      40       20       49 1        
      41       20       50 1        
      42       21       22 2        
      43       21       23 am       
      44       23       24 1        
      45       23       51 1        
      46       24       29 ar       
      47       24       25 ar       
      48       25       26 ar       
      49       25       52 1        
      50       26       27 ar       
      51       26       53 1        
      52       27       28 ar       
      53       27       54 1        
      54       28       29 ar       
      55       28       55 1        
      56       29       30 1        

