#        1GCZ_R01_S0001_C0000_L00005_S0001_C0050_G0010_E0001.mol2
#        Tue Jun  6 14:07:17 2017
#        Descriptor:     12    20    19    11     7    12
#        Energy - RMSD - RMSD MassCentre:     -65.8032    999.9999    999.9999
#        Receptor:       1  Surface Point:     1  Conformer:     0
#        Ligand:         5  Surface Point:     1  Conformer:    50
#        BUDE Formal Charge: 0
#        ATOM Count: 55
#        Heavy ATOM Count: 30
@<TRIPOS>MOLECULE
ZINC61464195_1GCZ_R01_S0001_C0000_L00005_S0001_C0050_G0010_E0001
 55 56 0 0 0
SMALL
USER_CHARGES
@<TRIPOS>ATOM
       1 C1        -0.6241   -1.4043   -0.3758 C.3       1 <0>        -0.1456 
       2 C2         0.1986   -0.2032    0.0815 C.3       1 <0>        -0.0579 
       3 C3        -0.0281    0.9637   -0.8754 C.3       1 <0>        -0.1456 
       4 C4        -0.2285    0.1978    1.4731 C.ar      1 <0>        -0.0771 
       5 C5        -0.7261   -0.7933    2.3273 C.ar      1 <0>        -0.0943 
       6 C6        -1.0373   -0.4762    3.6550 C.ar      1 <0>        -0.0923 
       7 C7        -0.8487    0.8242    4.1379 C.ar      1 <0>        -0.1041 
       8 C8        -0.4015    1.8336    3.2772 C.ar      1 <0>        -0.1315 
       9 C9        -0.1249    1.5160    1.9420 C.ar      1 <0>        -0.0969 
      10 S1        -1.1846    1.1873    5.8374 S.3       1 <0>        -0.0341 
      11 C10        0.3237    0.9264    6.8220 C.3       1 <0>        -0.1267 
      12 C11        0.7560   -0.5158    6.7062 C.2       1 <0>         0.4864 
      13 O1         0.5166   -1.2849    7.5890 O.2       1 <0>        -0.4815 
      14 O2         1.4134   -0.9366    5.6049 O.3       1 <0>        -0.3231 
      15 C12        1.8026   -2.3111    5.5403 C.3       1 <0>         0.0526 
      16 C13        2.7828   -2.6083    6.6498 C.2       1 <0>         0.5250 
      17 O3         2.5260   -3.4790    7.4798 O.2       1 <0>        -0.5082 
      18 N1         3.9235   -1.9294    6.7302 N.am      1 <0>        -0.5981 
      19 C14        4.8766   -2.2200    7.8109 C.3       1 <0>         0.0731 
      20 C15        4.2305   -0.8889    5.7382 C.3       1 <0>         0.1010 
      21 C16        5.6771   -1.0039    5.3206 C.2       1 <0>         0.4997 
      22 O4         6.4082   -0.0155    5.3588 O.2       1 <0>        -0.5061 
      23 N2         6.1598   -2.1739    4.9118 N.am      1 <0>        -0.6702 
      24 C17        7.5153   -2.2817    4.5205 C.ar      1 <0>         0.1553 
      25 C18        8.2295   -1.1368    4.1478 C.ar      1 <0>        -0.1106 
      26 C19        9.5726   -1.2472    3.7683 C.ar      1 <0>        -0.0959 
      27 C20       10.1993   -2.4964    3.7523 C.ar      1 <0>        -0.1208 
      28 C21        9.4822   -3.6436    4.1118 C.ar      1 <0>        -0.0919 
      29 C22        8.1414   -3.5337    4.4993 C.ar      1 <0>        -0.0639 
      30 Cl1        7.2453   -4.9577    4.9429 Cl        1 <0>        -0.0632 
      31 H1        -1.6781   -1.1351   -0.3946 H         1 <0>         0.0596 
      32 H2        -0.3071   -1.7017   -1.3733 H         1 <0>         0.0563 
      33 H3        -0.4725   -2.2311    0.3151 H         1 <0>         0.0575 
      34 H4         1.2540   -0.4673    0.0887 H         1 <0>         0.0784 
      35 H5         0.5685    1.8154   -0.5554 H         1 <0>         0.0596 
      36 H6        -1.0816    1.2359   -0.8711 H         1 <0>         0.0574 
      37 H7         0.2671    0.6703   -1.8806 H         1 <0>         0.0563 
      38 H8        -0.8604   -1.8082    1.9835 H         1 <0>         0.1285 
      39 H9        -1.4192   -1.2064    4.3531 H         1 <0>         0.1293 
      40 H10       -0.2786    2.8363    3.6591 H         1 <0>         0.1227 
      41 H11        0.1848    2.3139    1.2833 H         1 <0>         0.1262 
      42 H12        1.1163    1.5728    6.4508 H         1 <0>         0.1329 
      43 H13        0.1219    1.1612    7.8650 H         1 <0>         0.1329 
      44 H14        2.2722   -2.5109    4.5792 H         1 <0>         0.1063 
      45 H15        0.9245   -2.9432    5.6540 H         1 <0>         0.1054 
      46 H16        5.2027   -3.2555    7.7374 H         1 <0>         0.0686 
      47 H17        5.7375   -1.5608    7.7214 H         1 <0>         0.0794 
      48 H18        4.3938   -2.0587    8.7725 H         1 <0>         0.0778 
      49 H19        3.5899   -1.0179    4.8682 H         1 <0>         0.1198 
      50 H20        4.0556    0.0916    6.1761 H         1 <0>         0.1233 
      51 H21        5.5585   -2.9849    4.8809 H         1 <0>         0.4142 
      52 H22        7.7507   -0.1687    4.1577 H         1 <0>         0.1473 
      53 H23       10.1241   -0.3616    3.4883 H         1 <0>         0.1337 
      54 H24       11.2365   -2.5805    3.4632 H         1 <0>         0.1349 
      55 H25        9.9632   -4.6105    4.0938 H         1 <0>         0.1385 
@<TRIPOS>BOND
       1        1        2 1        
       2        1       31 1        
       3        1       32 1        
       4        1       33 1        
       5        2        3 1        
       6        2        4 1        
       7        2       34 1        
       8        3       35 1        
       9        3       36 1        
      10        3       37 1        
      11        4        9 ar       
      12        4        5 ar       
      13        5        6 ar       
      14        5       38 1        
      15        6        7 ar       
      16        6       39 1        
      17        7        8 ar       
      18        7       10 1        
      19        8        9 ar       
      20        8       40 1        
      21        9       41 1        
      22       10       11 1        
      23       11       12 1        
      24       11       42 1        
      25       11       43 1        
      26       12       13 2        
      27       12       14 1        
      28       14       15 1        
      29       15       16 1        
      30       15       44 1        
      31       15       45 1        
      32       16       17 2        
      33       16       18 am       
      34       18       19 1        
      35       18       20 1        
      36       19       46 1        
      37       19       47 1        
      38       19       48 1        
      39       20       21 1        
      40       20       49 1        
      41       20       50 1        
      42       21       22 2        
      43       21       23 am       
      44       23       24 1        
      45       23       51 1        
      46       24       29 ar       
      47       24       25 ar       
      48       25       26 ar       
      49       25       52 1        
      50       26       27 ar       
      51       26       53 1        
      52       27       28 ar       
      53       27       54 1        
      54       28       29 ar       
      55       28       55 1        
      56       29       30 1        

