#        1GCZ_R01_S0001_C0000_L00003_S0001_C0000_G0010_E0001.mol2
#        Tue Jun  6 09:54:35 2017
#        Descriptor:     27    31    20     8    14    13
#        Energy - RMSD - RMSD MassCentre:     -65.3864    999.9999    999.9999
#        Receptor:       1  Surface Point:     1  Conformer:     0
#        Ligand:         3  Surface Point:     1  Conformer:     0
#        BUDE Formal Charge: 0
#        ATOM Count: 58
#        Heavy ATOM Count: 30
@<TRIPOS>MOLECULE
ZINC61580633_1GCZ_R01_S0001_C0000_L00003_S0001_C0000_G0010_E0001
 58 59 0 0 0
SMALL
USER_CHARGES
@<TRIPOS>ATOM
       1 C1         0.0679    1.3120   -2.8409 C.3       1 <0>        -0.1532 
       2 C2        -1.0488    0.9145   -1.8735 C.3       1 <0>        -0.1224 
       3 C3        -0.5592    1.0811   -0.4335 C.3       1 <0>        -0.1198 
       4 C4        -1.6759    0.6836    0.5340 C.3       1 <0>         0.0610 
       5 O1        -1.2187    0.8392    1.8789 O.3       1 <0>        -0.3878 
       6 C5        -2.1910    0.4926    2.8671 C.3       1 <0>         0.0487 
       7 C6        -1.5958    0.6966    4.2617 C.3       1 <0>         0.1244 
       8 N1        -1.3204    2.1200    4.4716 N.am      1 <0>        -0.7216 
       9 C7        -0.7897    2.5390    5.6376 C.2       1 <0>         0.5161 
      10 O2        -0.5402    1.7375    6.5130 O.2       1 <0>        -0.5151 
      11 C8        -0.5064    4.0033    5.8535 C.3       1 <0>         0.0490 
      12 O3         0.0494    4.1938    7.1562 O.3       1 <0>        -0.3194 
      13 C9         0.3621    5.4574    7.5096 C.2       1 <0>         0.5417 
      14 O4         0.1675    6.3724    6.7321 O.2       1 <0>        -0.5337 
      15 C10        0.9356    5.7278    8.8295 C.2       1 <0>        -0.2559 
      16 C11        1.1881    4.6688    9.7803 C.2       1 <0>        -0.0791 
      17 C12        1.7174    5.0505   10.9570 C.2       1 <0>        -0.2585 
      18 S1         1.8729    6.8146   10.7841 S.3       1 <0>         0.3028 
      19 C13        1.2707    7.0142    9.2308 C.2       1 <0>         0.0893 
      20 N2         1.1361    8.1918    8.5145 N.am      1 <0>        -0.6099 
      21 C14        1.5162    9.3621    9.0644 C.2       1 <0>         0.5551 
      22 O5         1.9771    9.3841   10.1890 O.2       1 <0>        -0.4939 
      23 C15        1.3727   10.6188    8.3000 C.ar      1 <0>        -0.1466 
      24 C16        0.8384   10.5979    7.0104 C.ar      1 <0>        -0.0772 
      25 C17        0.7067   11.7747    6.3026 C.ar      1 <0>        -0.1241 
      26 C18        1.1028   12.9738    6.8681 C.ar      1 <0>        -0.0446 
      27 C19        1.6335   13.0015    8.1456 C.ar      1 <0>        -0.1261 
      28 C20        1.7653   11.8328    8.8666 C.ar      1 <0>        -0.0460 
      29 C21        0.9559   14.2553    6.0889 C.3       1 <0>        -0.0928 
      30 C22       -0.4171   14.8689    6.3705 C.3       1 <0>        -0.1485 
      31 H1        -0.2808    1.1933   -3.8668 H         1 <0>         0.0567 
      32 H2         0.3442    2.3523   -2.6691 H         1 <0>         0.0554 
      33 H3         0.9359    0.6736   -2.6760 H         1 <0>         0.0557 
      34 H4        -1.9167    1.5530   -2.0384 H         1 <0>         0.0632 
      35 H5        -1.3251   -0.1258   -2.0453 H         1 <0>         0.0635 
      36 H6         0.3087    0.4426   -0.2686 H         1 <0>         0.0711 
      37 H7        -0.2829    2.1214   -0.2617 H         1 <0>         0.0704 
      38 H8        -2.5438    1.3221    0.3691 H         1 <0>         0.0498 
      39 H9        -1.9522   -0.3567    0.3623 H         1 <0>         0.0505 
      40 H10       -3.0696    1.1271    2.7507 H         1 <0>         0.0584 
      41 H11       -2.4780   -0.5517    2.7438 H         1 <0>         0.0702 
      42 H12       -2.3044    0.3489    5.0135 H         1 <0>         0.0872 
      43 H13       -0.6682    0.1306    4.3473 H         1 <0>         0.0805 
      44 H14       -1.5200    2.7611    3.7715 H         1 <0>         0.4058 
      45 H15        0.2021    4.3510    5.1018 H         1 <0>         0.1008 
      46 H16       -1.4339    4.5693    5.7679 H         1 <0>         0.0999 
      47 H17        0.9654    3.6352    9.5602 H         1 <0>         0.1557 
      48 H18        1.9835    4.4344   11.8031 H         1 <0>         0.1929 
      49 H19        0.7684    8.1743    7.6172 H         1 <0>         0.4317 
      50 H20        0.5292    9.6626    6.5678 H         1 <0>         0.1287 
      51 H21        0.2939   11.7599    5.3048 H         1 <0>         0.1326 
      52 H22        1.9413   13.9408    8.5809 H         1 <0>         0.1342 
      53 H23        2.1756   11.8564    9.8654 H         1 <0>         0.1410 
      54 H24        1.7354   14.9551    6.3902 H         1 <0>         0.0777 
      55 H25        1.0484   14.0453    5.0233 H         1 <0>         0.0771 
      56 H26       -0.5233   15.7958    5.8069 H         1 <0>         0.0623 
      57 H27       -1.1965   14.1691    6.0691 H         1 <0>         0.0572 
      58 H28       -0.5095   15.0790    7.4360 H         1 <0>         0.0578 
@<TRIPOS>BOND
       1        1        2 1        
       2        1       31 1        
       3        1       32 1        
       4        1       33 1        
       5        2        3 1        
       6        2       34 1        
       7        2       35 1        
       8        3        4 1        
       9        3       36 1        
      10        3       37 1        
      11        4        5 1        
      12        4       38 1        
      13        4       39 1        
      14        5        6 1        
      15        6        7 1        
      16        6       40 1        
      17        6       41 1        
      18        7        8 1        
      19        7       42 1        
      20        7       43 1        
      21        8        9 am       
      22        8       44 1        
      23        9       10 2        
      24        9       11 1        
      25       11       12 1        
      26       11       45 1        
      27       11       46 1        
      28       12       13 1        
      29       13       14 2        
      30       13       15 1        
      31       15       19 2        
      32       15       16 1        
      33       16       17 2        
      34       16       47 1        
      35       17       18 1        
      36       17       48 1        
      37       18       19 1        
      38       19       20 1        
      39       20       21 am       
      40       20       49 1        
      41       21       22 2        
      42       21       23 1        
      43       23       28 ar       
      44       23       24 ar       
      45       24       25 ar       
      46       24       50 1        
      47       25       26 ar       
      48       25       51 1        
      49       26       27 ar       
      50       26       29 1        
      51       27       28 ar       
      52       27       52 1        
      53       28       53 1        
      54       29       30 1        
      55       29       54 1        
      56       29       55 1        
      57       30       56 1        
      58       30       57 1        
      59       30       58 1        

