#        1GCZ_R01_S0001_C0000_L00006_S0001_C0000_G0010_E0001.mol2
#        Tue Jun  6 09:56:12 2017
#        Descriptor:     31    34    31    11     6    14
#        Energy - RMSD - RMSD MassCentre:     -63.4942    999.9999    999.9999
#        Receptor:       1  Surface Point:     1  Conformer:     0
#        Ligand:         6  Surface Point:     1  Conformer:     0
#        BUDE Formal Charge: 0
#        ATOM Count: 47
#        Heavy ATOM Count: 29
@<TRIPOS>MOLECULE
ZINC61419927_1GCZ_R01_S0001_C0000_L00006_S0001_C0000_G0010_E0001
 47 49 0 0 0
SMALL
USER_CHARGES
@<TRIPOS>ATOM
       1 C1         2.1919    1.0796    4.2876 C.3       1 <0>        -0.1238 
       2 C2         1.7902    0.0671    5.3290 C.2       1 <0>         0.1810 
       3 C3         0.9774    0.3023    6.3830 C.2       1 <0>        -0.7869 
       4 C4         0.8668   -0.9011    7.0960 C.2       1 <0>        -0.0116 
       5 C5         1.6275   -1.8220    6.4326 C.2       1 <0>        -0.0716 
       6 O1         2.1752   -1.2152    5.3590 O.3       1 <0>        -0.1351 
       7 C6         1.8118   -3.2235    6.8164 C.2       1 <0>         0.5609 
       8 O2         1.2598   -3.6600    7.8084 O.2       1 <0>        -0.4736 
       9 O3         2.5938   -4.0301    6.0696 O.3       1 <0>        -0.3174 
      10 C7         2.7287   -5.3852    6.5027 C.3       1 <0>         0.0499 
      11 C8         3.6322   -6.1285    5.5528 C.2       1 <0>         0.5192 
      12 O4         4.1131   -5.5544    4.5988 O.2       1 <0>        -0.4838 
      13 N1         3.9057   -7.4313    5.7633 N.am      1 <0>        -0.6609 
      14 C9         4.8343   -8.0923    4.9496 C.ar      1 <0>         0.1328 
      15 C10        5.7699   -7.3635    4.2285 C.ar      1 <0>        -0.1070 
      16 C11        6.6853   -8.0187    3.4260 C.ar      1 <0>        -0.0227 
      17 C12        6.6698   -9.4000    3.3408 C.ar      1 <0>        -0.0992 
      18 C13        5.7394  -10.1293    4.0577 C.ar      1 <0>        -0.1155 
      19 C14        4.8246   -9.4803    4.8668 C.ar      1 <0>         0.0725 
      20 F1         3.9192  -10.1936    5.5715 F         1 <0>        -0.1311 
      21 Cl1        7.8553   -7.1077    2.5234 Cl        1 <0>        -0.0505 
      22 S1         0.2028    1.8326    6.7863 S.o2      1 <0>         2.7353 
      23 O5        -0.3742    2.3248    5.5846 O.2       1 <0>        -0.9438 
      24 O6        -0.5632    1.6030    7.9609 O.2       1 <0>        -0.9431 
      25 N2         1.4034    2.8939    7.2042 N.pl3     1 <0>        -1.0117 
      26 C15        2.0043    3.0254    8.5395 C.3       1 <0>         0.1158 
      27 C16        3.0561    4.1519    8.4597 C.3       1 <0>        -0.1296 
      28 C17        2.5911    4.9751    7.2294 C.3       1 <0>        -0.1292 
      29 C18        2.0511    3.8589    6.2971 C.3       1 <0>         0.1079 
      30 H1         2.8917    0.6230    3.5877 H         1 <0>         0.1035 
      31 H2         1.3067    1.4169    3.7482 H         1 <0>         0.1234 
      32 H3         2.6677    1.9314    4.7736 H         1 <0>         0.1077 
      33 H4         0.2922   -1.0671    7.9953 H         1 <0>         0.1837 
      34 H5         3.1587   -5.4055    7.5040 H         1 <0>         0.1136 
      35 H6         1.7482   -5.8609    6.5187 H         1 <0>         0.1125 
      36 H7         3.4594   -7.9112    6.4785 H         1 <0>         0.4215 
      37 H8         5.7825   -6.2856    4.2939 H         1 <0>         0.1733 
      38 H9         7.3859   -9.9091    2.7129 H         1 <0>         0.1477 
      39 H10        5.7298  -11.2071    3.9892 H         1 <0>         0.1529 
      40 H11        1.2362    3.2863    9.2675 H         1 <0>         0.0779 
      41 H12        2.4847    2.0892    8.8237 H         1 <0>         0.0674 
      42 H13        3.0363    4.7627    9.3622 H         1 <0>         0.0847 
      43 H14        4.0513    3.7393    8.2937 H         1 <0>         0.0771 
      44 H15        1.8021    5.6754    7.5035 H         1 <0>         0.0805 
      45 H16        3.4302    5.4955    6.7677 H         1 <0>         0.0863 
      46 H17        2.8701    3.3824    5.7584 H         1 <0>         0.0693 
      47 H18        1.3233    4.2691    5.5971 H         1 <0>         0.0896 
@<TRIPOS>BOND
       1        1        2 1        
       2        1       30 1        
       3        1       31 1        
       4        1       32 1        
       5        2        6 1        
       6        2        3 2        
       7        3        4 1        
       8        3       22 1        
       9        4        5 2        
      10        4       33 1        
      11        5        6 1        
      12        5        7 1        
      13        7        8 2        
      14        7        9 1        
      15        9       10 1        
      16       10       11 1        
      17       10       34 1        
      18       10       35 1        
      19       11       12 2        
      20       11       13 am       
      21       13       14 1        
      22       13       36 1        
      23       14       19 ar       
      24       14       15 ar       
      25       15       16 ar       
      26       15       37 1        
      27       16       17 ar       
      28       16       21 1        
      29       17       18 ar       
      30       17       38 1        
      31       18       19 ar       
      32       18       39 1        
      33       19       20 1        
      34       22       23 2        
      35       22       24 2        
      36       22       25 1        
      37       25       29 1        
      38       25       26 1        
      39       26       27 1        
      40       26       40 1        
      41       26       41 1        
      42       27       28 1        
      43       27       42 1        
      44       27       43 1        
      45       28       29 1        
      46       28       44 1        
      47       28       45 1        
      48       29       46 1        
      49       29       47 1        

