#        1GCZ_R01_S0001_C0000_L00006_S0001_C0001_G0010_E0001.mol2
#        Tue Jun  6 09:56:13 2017
#        Descriptor:     25    35    33    10     3    15
#        Energy - RMSD - RMSD MassCentre:     -60.5540    999.9999    999.9999
#        Receptor:       1  Surface Point:     1  Conformer:     0
#        Ligand:         6  Surface Point:     1  Conformer:     1
#        BUDE Formal Charge: 0
#        ATOM Count: 47
#        Heavy ATOM Count: 29
@<TRIPOS>MOLECULE
ZINC61419927_1GCZ_R01_S0001_C0000_L00006_S0001_C0001_G0010_E0001
 47 49 0 0 0
SMALL
USER_CHARGES
@<TRIPOS>ATOM
       1 C1        -2.3969   -6.8175    8.7610 C.3       1 <0>        -0.1238 
       2 C2        -1.1206   -6.5957    7.9853 C.2       1 <0>         0.1810 
       3 C3        -0.7033   -5.4740    7.3826 C.2       1 <0>        -0.7869 
       4 C4         0.6005   -5.8716    6.8062 C.2       1 <0>        -0.0116 
       5 C5         0.7355   -7.1570    7.1601 C.2       1 <0>        -0.0716 
       6 O1        -0.2670   -7.6915    7.8801 O.3       1 <0>        -0.1351 
       7 C6         1.9130   -7.9780    6.7994 C.2       1 <0>         0.5609 
       8 O2         1.9733   -9.1201    7.1460 O.2       1 <0>        -0.4736 
       9 O3         2.9180   -7.4363    6.0793 O.3       1 <0>        -0.3174 
      10 C7         4.0349   -8.2683    5.7549 C.3       1 <0>         0.0499 
      11 C8         5.0371   -7.4736    4.9523 C.2       1 <0>         0.5192 
      12 O4         5.4566   -7.9144    3.8832 O.2       1 <0>        -0.4838 
      13 N1         5.4658   -6.2975    5.4017 N.am      1 <0>        -0.6609 
      14 C9         6.4050   -5.5529    4.6497 C.ar      1 <0>         0.1328 
      15 C10        6.8890   -6.0108    3.4184 C.ar      1 <0>        -0.1070 
      16 C11        7.8538   -5.2731    2.7218 C.ar      1 <0>        -0.0227 
      17 C12        8.3182   -4.0595    3.2361 C.ar      1 <0>        -0.0992 
      18 C13        7.8059   -3.5757    4.4458 C.ar      1 <0>        -0.1155 
      19 C14        6.8430   -4.3172    5.1408 C.ar      1 <0>         0.0725 
      20 F1         6.3271   -3.8406    6.2935 F         1 <0>        -0.1311 
      21 Cl1        8.4732   -5.8631    1.2065 Cl        1 <0>        -0.0505 
      22 S1        -1.5053   -3.8219    7.2707 S.o2      1 <0>         2.7353 
      23 O5        -2.9092   -3.9881    7.0546 O.2       1 <0>        -0.9438 
      24 O6        -0.9396   -3.0892    6.1807 O.2       1 <0>        -0.9431 
      25 N2        -1.2458   -2.9442    8.7621 N.pl3     1 <0>        -1.0117 
      26 C15       -0.0449   -2.1835    8.9746 C.3       1 <0>         0.1158 
      27 C16       -0.4416   -1.3747   10.2237 C.3       1 <0>        -0.1296 
      28 C17       -1.3910   -2.3249   10.9770 C.3       1 <0>        -0.1292 
      29 C18       -2.2365   -2.9432    9.8481 C.3       1 <0>         0.1079 
      30 H1        -2.9771   -5.8974    8.7739 H         1 <0>         0.1035 
      31 H2        -2.1546   -7.1086    9.7809 H         1 <0>         0.1234 
      32 H3        -2.9769   -7.6060    8.2860 H         1 <0>         0.1077 
      33 H4         1.2768   -5.2532    6.2347 H         1 <0>         0.1837 
      34 H5         3.6941   -9.1198    5.1696 H         1 <0>         0.1136 
      35 H6         4.5019   -8.6214    6.6719 H         1 <0>         0.1125 
      36 H7         5.1208   -5.9367    6.2797 H         1 <0>         0.4215 
      37 H8         6.5187   -6.9286    2.9863 H         1 <0>         0.1733 
      38 H9         9.0664   -3.4964    2.6981 H         1 <0>         0.1477 
      39 H10        8.1479   -2.6331    4.8472 H         1 <0>         0.1529 
      40 H11        0.7737   -2.8699    9.1806 H         1 <0>         0.0779 
      41 H12        0.2093   -1.5545    8.1240 H         1 <0>         0.0674 
      42 H13       -0.9989   -0.4911    9.9193 H         1 <0>         0.0847 
      43 H14        0.4154   -1.0606   10.8160 H         1 <0>         0.0771 
      44 H15       -0.8027   -3.1051   11.4553 H         1 <0>         0.0805 
      45 H16       -1.9923   -1.8215   11.7312 H         1 <0>         0.0863 
      46 H17       -3.0667   -2.3013    9.5611 H         1 <0>         0.0693 
      47 H18       -2.6041   -3.9390   10.0867 H         1 <0>         0.0896 
@<TRIPOS>BOND
       1        1        2 1        
       2        1       30 1        
       3        1       31 1        
       4        1       32 1        
       5        2        6 1        
       6        2        3 2        
       7        3        4 1        
       8        3       22 1        
       9        4        5 2        
      10        4       33 1        
      11        5        6 1        
      12        5        7 1        
      13        7        8 2        
      14        7        9 1        
      15        9       10 1        
      16       10       11 1        
      17       10       34 1        
      18       10       35 1        
      19       11       12 2        
      20       11       13 am       
      21       13       14 1        
      22       13       36 1        
      23       14       19 ar       
      24       14       15 ar       
      25       15       16 ar       
      26       15       37 1        
      27       16       17 ar       
      28       16       21 1        
      29       17       18 ar       
      30       17       38 1        
      31       18       19 ar       
      32       18       39 1        
      33       19       20 1        
      34       22       23 2        
      35       22       24 2        
      36       22       25 1        
      37       25       29 1        
      38       25       26 1        
      39       26       27 1        
      40       26       40 1        
      41       26       41 1        
      42       27       28 1        
      43       27       42 1        
      44       27       43 1        
      45       28       29 1        
      46       28       44 1        
      47       28       45 1        
      48       29       46 1        
      49       29       47 1        

