#        1GCZ_R01_S0001_C0000_L00006_S0001_C0001_G0010_E0001.mol2
#        Tue Jun  6 14:07:21 2017
#        Descriptor:      6    18    14    11     7    14
#        Energy - RMSD - RMSD MassCentre:     -57.0482    999.9999    999.9999
#        Receptor:       1  Surface Point:     1  Conformer:     0
#        Ligand:         6  Surface Point:     1  Conformer:     1
#        BUDE Formal Charge: 0
#        ATOM Count: 47
#        Heavy ATOM Count: 29
@<TRIPOS>MOLECULE
ZINC61419927_1GCZ_R01_S0001_C0000_L00006_S0001_C0001_G0010_E0001
 47 49 0 0 0
SMALL
USER_CHARGES
@<TRIPOS>ATOM
       1 C1        -1.6720   -1.6505    7.8672 C.3       1 <0>        -0.1238 
       2 C2        -0.3590   -1.8189    7.1407 C.2       1 <0>         0.1810 
       3 C3         0.2475   -0.9532    6.3172 C.2       1 <0>        -0.7869 
       4 C4         1.4831   -1.6710    5.9319 C.2       1 <0>        -0.0116 
       5 C5         1.4008   -2.8373    6.5866 C.2       1 <0>        -0.0716 
       6 O1         0.3088   -3.0234    7.3495 O.3       1 <0>        -0.1351 
       7 C6         2.4384   -3.8894    6.5026 C.2       1 <0>         0.5609 
       8 O2         2.3056   -4.9088    7.1119 O.2       1 <0>        -0.4736 
       9 O3         3.5340   -3.6968    5.7380 O.3       1 <0>        -0.3174 
      10 C7         4.5093   -4.7414    5.6881 C.3       1 <0>         0.0499 
      11 C8         5.6448   -4.3259    4.7836 C.2       1 <0>         0.5192 
      12 O4         6.0122   -5.0710    3.8765 O.2       1 <0>        -0.4838 
      13 N1         6.2470   -3.1546    4.9683 N.am      1 <0>        -0.6609 
      14 C9         7.3112   -2.7652    4.1209 C.ar      1 <0>         0.1328 
      15 C10        7.7433   -3.5758    3.0644 C.ar      1 <0>        -0.1070 
      16 C11        8.8303   -3.1837    2.2739 C.ar      1 <0>        -0.0227 
      17 C12        9.4724   -1.9660    2.5149 C.ar      1 <0>        -0.0992 
      18 C13        9.0171   -1.1315    3.5426 C.ar      1 <0>        -0.1155 
      19 C14        7.9314   -1.5281    4.3326 C.ar      1 <0>         0.0725 
      20 F1         7.4726   -0.7138    5.3065 F         1 <0>        -0.1311 
      21 Cl1        9.3812   -4.2102    0.9814 Cl        1 <0>        -0.0505 
      22 S1        -0.2747    0.7240    5.7698 S.o2      1 <0>         2.7353 
      23 O5        -1.6816    0.7242    5.5134 O.2       1 <0>        -0.9438 
      24 O6         0.4269    1.0762    4.5746 O.2       1 <0>        -0.9431 
      25 N2         0.0886    1.8878    7.0252 N.pl3     1 <0>        -1.0117 
      26 C15        1.3912    2.4869    7.1254 C.3       1 <0>         0.1158 
      27 C16        1.1014    3.6250    8.1217 C.3       1 <0>        -0.1296 
      28 C17       -0.0060    3.0405    9.0182 C.3       1 <0>        -0.1292 
      29 C18       -0.9138    2.3018    8.0174 C.3       1 <0>         0.1079 
      30 H1        -2.0963   -0.6780    7.6271 H         1 <0>         0.1035 
      31 H2        -1.5035   -1.7186    8.9399 H         1 <0>         0.1234 
      32 H3        -2.3604   -2.4338    7.5570 H         1 <0>         0.1077 
      33 H4         2.2633   -1.3191    5.2732 H         1 <0>         0.1837 
      34 H5         4.0491   -5.6479    5.3005 H         1 <0>         0.1136 
      35 H6         4.8918   -4.9277    6.6894 H         1 <0>         0.1125 
      36 H7         5.9446   -2.5436    5.7136 H         1 <0>         0.4215 
      37 H8         7.2399   -4.5044    2.8391 H         1 <0>         0.1733 
      38 H9        10.3139   -1.6699    1.9062 H         1 <0>         0.1477 
      39 H10        9.4973   -0.1825    3.7306 H         1 <0>         0.1529 
      40 H11        2.0833    1.7555    7.5373 H         1 <0>         0.0779 
      41 H12        1.7631    2.8449    6.1676 H         1 <0>         0.0674 
      42 H13        0.7011    4.4820    7.5839 H         1 <0>         0.0847 
      43 H14        1.9839    3.9402    8.6746 H         1 <0>         0.0771 
      44 H15        0.4376    2.3200    9.7022 H         1 <0>         0.0805 
      45 H16       -0.5355    3.7967    9.5942 H         1 <0>         0.0863 
      46 H17       -1.6228    2.9726    7.5368 H         1 <0>         0.0693 
      47 H18       -1.4426    1.4609    8.4612 H         1 <0>         0.0896 
@<TRIPOS>BOND
       1        1        2 1        
       2        1       30 1        
       3        1       31 1        
       4        1       32 1        
       5        2        6 1        
       6        2        3 2        
       7        3        4 1        
       8        3       22 1        
       9        4        5 2        
      10        4       33 1        
      11        5        6 1        
      12        5        7 1        
      13        7        8 2        
      14        7        9 1        
      15        9       10 1        
      16       10       11 1        
      17       10       34 1        
      18       10       35 1        
      19       11       12 2        
      20       11       13 am       
      21       13       14 1        
      22       13       36 1        
      23       14       19 ar       
      24       14       15 ar       
      25       15       16 ar       
      26       15       37 1        
      27       16       17 ar       
      28       16       21 1        
      29       17       18 ar       
      30       17       38 1        
      31       18       19 ar       
      32       18       39 1        
      33       19       20 1        
      34       22       23 2        
      35       22       24 2        
      36       22       25 1        
      37       25       29 1        
      38       25       26 1        
      39       26       27 1        
      40       26       40 1        
      41       26       41 1        
      42       27       28 1        
      43       27       42 1        
      44       27       43 1        
      45       28       29 1        
      46       28       44 1        
      47       28       45 1        
      48       29       46 1        
      49       29       47 1        

