#        1GCZ_R01_S0001_C0000_L00006_S0001_C0002_G0010_E0001.mol2
#        Tue Jun  6 14:07:23 2017
#        Descriptor:     22    29     6     9     5    15
#        Energy - RMSD - RMSD MassCentre:     -57.5454    999.9999    999.9999
#        Receptor:       1  Surface Point:     1  Conformer:     0
#        Ligand:         6  Surface Point:     1  Conformer:     2
#        BUDE Formal Charge: 0
#        ATOM Count: 47
#        Heavy ATOM Count: 29
@<TRIPOS>MOLECULE
ZINC61419927_1GCZ_R01_S0001_C0000_L00006_S0001_C0002_G0010_E0001
 47 49 0 0 0
SMALL
USER_CHARGES
@<TRIPOS>ATOM
       1 C1         3.1180   -8.4178    5.9301 C.3       1 <0>        -0.1238 
       2 C2         2.8069   -6.9480    6.0822 C.2       1 <0>         0.1810 
       3 C3         1.8559   -6.3773    6.8342 C.2       1 <0>        -0.7869 
       4 C4         2.0499   -4.9332    6.5757 C.2       1 <0>        -0.0116 
       5 C5         3.0768   -4.8903    5.7160 C.2       1 <0>        -0.0716 
       6 O1         3.6057   -6.0720    5.3509 O.3       1 <0>        -0.1351 
       7 C6         3.6307   -3.6283    5.1764 C.2       1 <0>         0.5609 
       8 O2         4.5487   -3.6579    4.4119 O.2       1 <0>        -0.4736 
       9 O3         3.0985   -2.4448    5.5480 O.3       1 <0>        -0.3174 
      10 C7         3.6669   -1.2522    5.0005 C.3       1 <0>         0.0499 
      11 C8         2.9303   -0.0502    5.5415 C.2       1 <0>         0.5192 
      12 O4         3.5576    0.8764    6.0523 O.2       1 <0>        -0.4838 
      13 N1         1.6036    0.0058    5.4656 N.am      1 <0>        -0.6609 
      14 C9         0.9134    1.1322    5.9727 C.ar      1 <0>         0.1328 
      15 C10        1.5933    2.2159    6.5411 C.ar      1 <0>        -0.1070 
      16 C11        0.8786    3.2939    7.0771 C.ar      1 <0>        -0.0227 
      17 C12       -0.5177    3.3095    7.0214 C.ar      1 <0>        -0.0992 
      18 C13       -1.2012    2.2486    6.4155 C.ar      1 <0>        -0.1155 
      19 C14       -0.4831    1.1712    5.8827 C.ar      1 <0>         0.0725 
      20 F1        -1.1374    0.1597    5.2736 F         1 <0>        -0.1311 
      21 Cl1        1.7291    4.6237    7.8092 Cl        1 <0>        -0.0505 
      22 S1         0.5986   -7.1456    7.9362 S.o2      1 <0>         2.7353 
      23 O5         1.2581   -7.8779    8.9725 O.2       1 <0>        -0.9438 
      24 O6        -0.2242   -8.0338    7.1755 O.2       1 <0>        -0.9431 
      25 N2        -0.3956   -5.8946    8.6496 N.pl3     1 <0>        -1.0117 
      26 C15       -1.6597   -5.5322    8.0694 C.3       1 <0>         0.1158 
      27 C16       -1.9547   -4.2265    8.8308 C.3       1 <0>        -0.1296 
      28 C17       -1.3076   -4.4630   10.2081 C.3       1 <0>        -0.1292 
      29 C18        0.0175   -5.1650    9.8570 C.3       1 <0>         0.1079 
      30 H1         2.4329   -8.9982    6.5444 H         1 <0>         0.1035 
      31 H2         4.1409   -8.6062    6.2494 H         1 <0>         0.1234 
      32 H3         3.0038   -8.7059    4.8873 H         1 <0>         0.1077 
      33 H4         1.4844   -4.1138    6.9946 H         1 <0>         0.1837 
      34 H5         3.5794   -1.2743    3.9163 H         1 <0>         0.1136 
      35 H6         4.7168   -1.1907    5.2790 H         1 <0>         0.1125 
      36 H7         1.0896   -0.7556    5.0461 H         1 <0>         0.4215 
      37 H8         2.6728    2.2402    6.5639 H         1 <0>         0.1733 
      38 H9        -1.0653    4.1404    7.4410 H         1 <0>         0.1477 
      39 H10       -2.2795    2.2551    6.3551 H         1 <0>         0.1529 
      40 H11       -1.5200   -5.3567    7.0048 H         1 <0>         0.0779 
      41 H12       -2.4230   -6.2930    8.2185 H         1 <0>         0.0674 
      42 H13       -3.0296   -4.1206    8.9621 H         1 <0>         0.0847 
      43 H14       -1.5760   -3.3429    8.3213 H         1 <0>         0.0771 
      44 H15       -1.0943   -3.5002   10.6677 H         1 <0>         0.0805 
      45 H16       -1.9321   -5.0466   10.8813 H         1 <0>         0.0863 
      46 H17        0.3110   -5.8868   10.6163 H         1 <0>         0.0693 
      47 H18        0.8333   -4.4692    9.6728 H         1 <0>         0.0896 
@<TRIPOS>BOND
       1        1        2 1        
       2        1       30 1        
       3        1       31 1        
       4        1       32 1        
       5        2        6 1        
       6        2        3 2        
       7        3        4 1        
       8        3       22 1        
       9        4        5 2        
      10        4       33 1        
      11        5        6 1        
      12        5        7 1        
      13        7        8 2        
      14        7        9 1        
      15        9       10 1        
      16       10       11 1        
      17       10       34 1        
      18       10       35 1        
      19       11       12 2        
      20       11       13 am       
      21       13       14 1        
      22       13       36 1        
      23       14       19 ar       
      24       14       15 ar       
      25       15       16 ar       
      26       15       37 1        
      27       16       17 ar       
      28       16       21 1        
      29       17       18 ar       
      30       17       38 1        
      31       18       19 ar       
      32       18       39 1        
      33       19       20 1        
      34       22       23 2        
      35       22       24 2        
      36       22       25 1        
      37       25       29 1        
      38       25       26 1        
      39       26       27 1        
      40       26       40 1        
      41       26       41 1        
      42       27       28 1        
      43       27       42 1        
      44       27       43 1        
      45       28       29 1        
      46       28       44 1        
      47       28       45 1        
      48       29       46 1        
      49       29       47 1        

