#        1GCZ_R01_S0001_C0000_L00006_S0001_C0003_G0010_E0001.mol2
#        Tue Jun  6 09:56:15 2017
#        Descriptor:      6    18     7    15     7    13
#        Energy - RMSD - RMSD MassCentre:     -56.9418    999.9999    999.9999
#        Receptor:       1  Surface Point:     1  Conformer:     0
#        Ligand:         6  Surface Point:     1  Conformer:     3
#        BUDE Formal Charge: 0
#        ATOM Count: 47
#        Heavy ATOM Count: 29
@<TRIPOS>MOLECULE
ZINC61419927_1GCZ_R01_S0001_C0000_L00006_S0001_C0003_G0010_E0001
 47 49 0 0 0
SMALL
USER_CHARGES
@<TRIPOS>ATOM
       1 C1         9.4193   -4.9277    2.9586 C.3       1 <0>        -0.1238 
       2 C2         8.3897   -3.9017    3.3675 C.2       1 <0>         0.1810 
       3 C3         8.4925   -2.5661    3.3295 C.2       1 <0>        -0.7869 
       4 C4         7.1788   -2.1169    3.8419 C.2       1 <0>        -0.0116 
       5 C5         6.5217   -3.2562    4.0990 C.2       1 <0>        -0.0716 
       6 O1         7.1802   -4.4012    3.8449 O.3       1 <0>        -0.1351 
       7 C6         5.1415   -3.2937    4.6321 C.2       1 <0>         0.5609 
       8 O2         4.6103   -4.3436    4.8403 O.2       1 <0>        -0.4736 
       9 O3         4.4837   -2.1419    4.8827 O.3       1 <0>        -0.3174 
      10 C7         3.1521   -2.2282    5.3971 C.3       1 <0>         0.0499 
      11 C8         2.6027   -0.8372    5.6051 C.2       1 <0>         0.5192 
      12 O4         1.5110   -0.5299    5.1287 O.2       1 <0>        -0.4838 
      13 N1         3.2995    0.0550    6.3033 N.am      1 <0>        -0.6609 
      14 C9         2.7847    1.3585    6.4982 C.ar      1 <0>         0.1328 
      15 C10        1.5368    1.7390    5.9905 C.ar      1 <0>        -0.1070 
      16 C11        1.0770    3.0507    6.1594 C.ar      1 <0>        -0.0227 
      17 C12        1.8474    3.9810    6.8623 C.ar      1 <0>        -0.0992 
      18 C13        3.0766    3.5941    7.4094 C.ar      1 <0>        -0.1155 
      19 C14        3.5341    2.2824    7.2363 C.ar      1 <0>         0.0725 
      20 F1         4.7060    1.8985    7.7856 F         1 <0>        -0.1311 
      21 Cl1       -0.4617    3.5250    5.4998 Cl        1 <0>        -0.0505 
      22 S1         9.8899   -1.5018    2.7821 S.o2      1 <0>         2.7353 
      23 O5         9.4090   -0.1797    2.5257 O.2       1 <0>        -0.9438 
      24 O6        10.4609   -2.0405    1.5869 O.2       1 <0>        -0.9431 
      25 N2        11.1078   -1.4451    4.0375 N.pl3     1 <0>        -1.0117 
      26 C15       12.1163   -2.4642    4.1377 C.3       1 <0>         0.1158 
      27 C16       13.0866   -1.8026    5.1340 C.3       1 <0>        -0.1296 
      28 C17       12.1587   -0.9620    6.0306 C.3       1 <0>        -0.1292 
      29 C18       11.1540   -0.3615    5.0297 C.3       1 <0>         0.1079 
      30 H1        10.3150   -4.4210    2.6057 H         1 <0>         0.1035 
      31 H2         9.0151   -5.5484    2.1618 H         1 <0>         0.1234 
      32 H3         9.6683   -5.5516    3.8145 H         1 <0>         0.1077 
      33 H4         6.8425   -1.0988    3.9710 H         1 <0>         0.1837 
      34 H5         3.1646   -2.7597    6.3463 H         1 <0>         0.1136 
      35 H6         2.5244   -2.7646    4.6885 H         1 <0>         0.1125 
      36 H7         4.1958   -0.1985    6.6940 H         1 <0>         0.4215 
      37 H8         0.9102    1.0271    5.4739 H         1 <0>         0.1733 
      38 H9         1.4916    4.9932    6.9856 H         1 <0>         0.1477 
      39 H10        3.6752    4.3006    7.9653 H         1 <0>         0.1529 
      40 H11       11.6657   -3.3648    4.5496 H         1 <0>         0.0779 
      41 H12       12.5799   -2.6912    3.1799 H         1 <0>         0.0674 
      42 H13       13.7551   -1.1334    4.5962 H         1 <0>         0.0847 
      43 H14       13.6847   -2.5241    5.6869 H         1 <0>         0.0771 
      44 H15       11.6333   -1.6252    6.7145 H         1 <0>         0.0805 
      45 H16       12.6881   -0.2058    6.6065 H         1 <0>         0.0863 
      46 H17       11.5419    0.5341    4.5492 H         1 <0>         0.0693 
      47 H18       10.1830   -0.1522    5.4735 H         1 <0>         0.0896 
@<TRIPOS>BOND
       1        1        2 1        
       2        1       30 1        
       3        1       31 1        
       4        1       32 1        
       5        2        6 1        
       6        2        3 2        
       7        3        4 1        
       8        3       22 1        
       9        4        5 2        
      10        4       33 1        
      11        5        6 1        
      12        5        7 1        
      13        7        8 2        
      14        7        9 1        
      15        9       10 1        
      16       10       11 1        
      17       10       34 1        
      18       10       35 1        
      19       11       12 2        
      20       11       13 am       
      21       13       14 1        
      22       13       36 1        
      23       14       19 ar       
      24       14       15 ar       
      25       15       16 ar       
      26       15       37 1        
      27       16       17 ar       
      28       16       21 1        
      29       17       18 ar       
      30       17       38 1        
      31       18       19 ar       
      32       18       39 1        
      33       19       20 1        
      34       22       23 2        
      35       22       24 2        
      36       22       25 1        
      37       25       29 1        
      38       25       26 1        
      39       26       27 1        
      40       26       40 1        
      41       26       41 1        
      42       27       28 1        
      43       27       42 1        
      44       27       43 1        
      45       28       29 1        
      46       28       44 1        
      47       28       45 1        
      48       29       46 1        
      49       29       47 1        

