#        1GCZ_R01_S0001_C0000_L00006_S0001_C0003_G0010_E0001.mol2
#        Tue Jun  6 14:07:25 2017
#        Descriptor:     23    35    24    15     6    13
#        Energy - RMSD - RMSD MassCentre:     -61.1056    999.9999    999.9999
#        Receptor:       1  Surface Point:     1  Conformer:     0
#        Ligand:         6  Surface Point:     1  Conformer:     3
#        BUDE Formal Charge: 0
#        ATOM Count: 47
#        Heavy ATOM Count: 29
@<TRIPOS>MOLECULE
ZINC61419927_1GCZ_R01_S0001_C0000_L00006_S0001_C0003_G0010_E0001
 47 49 0 0 0
SMALL
USER_CHARGES
@<TRIPOS>ATOM
       1 C1         8.5968   -5.6490    1.9045 C.3       1 <0>        -0.1238 
       2 C2         7.7804   -4.6083    2.6327 C.2       1 <0>         0.1810 
       3 C3         8.1005   -3.3311    2.8816 C.2       1 <0>        -0.7869 
       4 C4         6.9156   -2.8274    3.6111 C.2       1 <0>        -0.0116 
       5 C5         6.0967   -3.8863    3.6745 C.2       1 <0>        -0.0716 
       6 O1         6.5383   -5.0233    3.1076 O.3       1 <0>        -0.1351 
       7 C6         4.7669   -3.8454    4.3230 C.2       1 <0>         0.5609 
       8 O2         4.0836   -4.8254    4.3460 O.2       1 <0>        -0.4736 
       9 O3         4.3269   -2.7012    4.8880 O.3       1 <0>        -0.3174 
      10 C7         3.0357   -2.7099    5.5026 C.3       1 <0>         0.0499 
      11 C8         2.7392   -1.3416    6.0684 C.2       1 <0>         0.5192 
      12 O4         1.6851   -0.7745    5.7851 O.2       1 <0>        -0.4838 
      13 N1         3.6182   -0.7504    6.8727 N.am      1 <0>        -0.6609 
      14 C9         3.3404    0.5317    7.4028 C.ar      1 <0>         0.1328 
      15 C10        2.1426    1.1995    7.1212 C.ar      1 <0>        -0.1070 
      16 C11        1.9188    2.4875    7.6224 C.ar      1 <0>        -0.0227 
      17 C12        2.8767    3.1035    8.4323 C.ar      1 <0>        -0.0992 
      18 C13        4.0576    2.4232    8.7526 C.ar      1 <0>        -0.1155 
      19 C14        4.2790    1.1364    8.2475 C.ar      1 <0>         0.0725 
      20 F1         5.4041    0.4668    8.5765 F         1 <0>        -0.1311 
      21 Cl1        0.4405    3.3237    7.2437 Cl        1 <0>        -0.0505 
      22 S1         9.6166   -2.3844    2.4450 S.o2      1 <0>         2.7353 
      23 O5         9.3460   -0.9833    2.5381 O.2       1 <0>        -0.9438 
      24 O6        10.0115   -2.7050    1.1086 O.2       1 <0>        -0.9431 
      25 N2        10.9059   -2.8033    3.5517 N.pl3     1 <0>        -1.0117 
      26 C15       11.7358   -3.9538    3.3208 C.3       1 <0>         0.1158 
      27 C16       12.8649   -3.6943    4.3355 C.3       1 <0>        -0.1296 
      28 C17       12.1494   -2.9612    5.4853 C.3       1 <0>        -0.1292 
      29 C18       11.1954   -2.0019    4.7496 C.3       1 <0>         0.1079 
      30 H1         9.5393   -5.2104    1.5837 H         1 <0>         0.1035 
      31 H2         8.0443   -5.9990    1.0350 H         1 <0>         0.1234 
      32 H3         8.7938   -6.4860    2.5710 H         1 <0>         0.1077 
      33 H4         6.7619   -1.8301    3.9961 H         1 <0>         0.1837 
      34 H5         3.0214   -3.4454    6.3042 H         1 <0>         0.1136 
      35 H6         2.2831   -2.9669    4.7602 H         1 <0>         0.1125 
      36 H7         4.4834   -1.2170    7.1047 H         1 <0>         0.4215 
      37 H8         1.3745    0.7285    6.5259 H         1 <0>         0.1733 
      38 H9         2.7025    4.0993    8.8123 H         1 <0>         0.1477 
      39 H10        4.7998    2.8838    9.3877 H         1 <0>         0.1529 
      40 H11       11.1697   -4.8499    3.5663 H         1 <0>         0.0779 
      41 H12       12.0921   -4.0149    2.2946 H         1 <0>         0.0674 
      42 H13       13.5988   -3.0228    3.8945 H         1 <0>         0.0847 
      43 H14       13.3696   -4.6050    4.6511 H         1 <0>         0.0771 
      44 H15       11.5668   -3.6822    6.0549 H         1 <0>         0.0805 
      45 H16       12.8332   -2.4474    6.1579 H         1 <0>         0.0863 
      46 H17       11.6945   -1.0852    4.4427 H         1 <0>         0.0693 
      47 H18       10.3034   -1.7628    5.3247 H         1 <0>         0.0896 
@<TRIPOS>BOND
       1        1        2 1        
       2        1       30 1        
       3        1       31 1        
       4        1       32 1        
       5        2        6 1        
       6        2        3 2        
       7        3        4 1        
       8        3       22 1        
       9        4        5 2        
      10        4       33 1        
      11        5        6 1        
      12        5        7 1        
      13        7        8 2        
      14        7        9 1        
      15        9       10 1        
      16       10       11 1        
      17       10       34 1        
      18       10       35 1        
      19       11       12 2        
      20       11       13 am       
      21       13       14 1        
      22       13       36 1        
      23       14       19 ar       
      24       14       15 ar       
      25       15       16 ar       
      26       15       37 1        
      27       16       17 ar       
      28       16       21 1        
      29       17       18 ar       
      30       17       38 1        
      31       18       19 ar       
      32       18       39 1        
      33       19       20 1        
      34       22       23 2        
      35       22       24 2        
      36       22       25 1        
      37       25       29 1        
      38       25       26 1        
      39       26       27 1        
      40       26       40 1        
      41       26       41 1        
      42       27       28 1        
      43       27       42 1        
      44       27       43 1        
      45       28       29 1        
      46       28       44 1        
      47       28       45 1        
      48       29       46 1        
      49       29       47 1        

