#        1GCZ_R01_S0001_C0000_L00006_S0001_C0004_G0010_E0001.mol2
#        Tue Jun  6 09:56:16 2017
#        Descriptor:     14    25     3     7     7    14
#        Energy - RMSD - RMSD MassCentre:     -57.8650    999.9999    999.9999
#        Receptor:       1  Surface Point:     1  Conformer:     0
#        Ligand:         6  Surface Point:     1  Conformer:     4
#        BUDE Formal Charge: 0
#        ATOM Count: 47
#        Heavy ATOM Count: 29
@<TRIPOS>MOLECULE
ZINC61419927_1GCZ_R01_S0001_C0000_L00006_S0001_C0004_G0010_E0001
 47 49 0 0 0
SMALL
USER_CHARGES
@<TRIPOS>ATOM
       1 C1         1.9100   -2.7683    7.3848 C.3       1 <0>        -0.1238 
       2 C2         0.5603   -2.0932    7.4328 C.2       1 <0>         0.1810 
       3 C3        -0.3139   -2.0630    8.4480 C.2       1 <0>        -0.7869 
       4 C4        -1.4281   -1.2557    7.9033 C.2       1 <0>        -0.0116 
       5 C5        -1.0306   -0.9462    6.6616 C.2       1 <0>        -0.0716 
       6 O1         0.1705   -1.4160    6.2796 O.3       1 <0>        -0.1351 
       7 C6        -1.8411   -0.1300    5.7303 C.2       1 <0>         0.5609 
       8 O2        -2.9064    0.2876    6.0746 O.2       1 <0>        -0.4736 
       9 O3        -1.3763    0.1424    4.4925 O.3       1 <0>        -0.3174 
      10 C7        -2.1947    0.9348    3.6280 C.3       1 <0>         0.0499 
      11 C8        -1.4943    1.1193    2.3030 C.2       1 <0>         0.5192 
      12 O4        -1.3515    2.2480    1.8353 O.2       1 <0>        -0.4838 
      13 N1        -1.0322    0.0614    1.6426 N.am      1 <0>        -0.6609 
      14 C9        -0.3759    0.2344    0.4011 C.ar      1 <0>         0.1328 
      15 C10       -0.1750    1.5042   -0.1532 C.ar      1 <0>        -0.1070 
      16 C11        0.4352    1.6381   -1.4062 C.ar      1 <0>        -0.0227 
      17 C12        0.8753    0.5068   -2.0988 C.ar      1 <0>        -0.0992 
      18 C13        0.7160   -0.7624   -1.5298 C.ar      1 <0>        -0.1155 
      19 C14        0.1031   -0.8925   -0.2778 C.ar      1 <0>         0.0725 
      20 F1        -0.0276   -2.1120    0.2859 F         1 <0>        -0.1311 
      21 Cl1        0.6546    3.2174   -2.1028 Cl        1 <0>        -0.0505 
      22 S1        -0.2074   -2.8144   10.1241 S.o2      1 <0>         2.7353 
      23 O5         0.9204   -2.2735   10.8173 O.2       1 <0>        -0.9438 
      24 O6        -0.0572   -4.2313   10.0037 O.2       1 <0>        -0.9431 
      25 N2        -1.6678   -2.4555   11.0191 N.pl3     1 <0>        -1.0117 
      26 C15       -2.8391   -3.2777   10.8859 C.3       1 <0>         0.1158 
      27 C16       -3.6779   -2.7665   12.0720 C.3       1 <0>        -0.1296 
      28 C17       -3.2775   -1.2833   12.1788 C.3       1 <0>        -0.1292 
      29 C18       -1.7565   -1.3128   11.9394 C.3       1 <0>         0.1079 
      30 H1         2.1025   -3.2607    8.3356 H         1 <0>         0.1035 
      31 H2         2.6809   -2.0235    7.1987 H         1 <0>         0.1234 
      32 H3         1.9174   -3.5064    6.5855 H         1 <0>         0.1077 
      33 H4        -2.3447   -0.9855    8.4066 H         1 <0>         0.1837 
      34 H5        -2.3692    1.9064    4.0851 H         1 <0>         0.1136 
      35 H6        -3.1463    0.4319    3.4690 H         1 <0>         0.1125 
      36 H7        -1.1499   -0.8648    2.0276 H         1 <0>         0.4215 
      37 H8        -0.4764    2.3935    0.3802 H         1 <0>         0.1733 
      38 H9         1.3405    0.6142   -3.0674 H         1 <0>         0.1477 
      39 H10        1.0632   -1.6430   -2.0497 H         1 <0>         0.1529 
      40 H11       -3.3139   -3.0604    9.9314 H         1 <0>         0.0779 
      41 H12       -2.6152   -4.3405   10.9504 H         1 <0>         0.0674 
      42 H13       -3.3685   -3.2795   12.9803 H         1 <0>         0.0847 
      43 H14       -4.7465   -2.9169   11.9324 H         1 <0>         0.0771 
      44 H15       -3.7581   -0.7295   11.3750 H         1 <0>         0.0805 
      45 H16       -3.5491   -0.8331   13.1314 H         1 <0>         0.0863 
      46 H17       -1.2049   -1.5525   12.8461 H         1 <0>         0.0693 
      47 H18       -1.3746   -0.3903   11.5071 H         1 <0>         0.0896 
@<TRIPOS>BOND
       1        1        2 1        
       2        1       30 1        
       3        1       31 1        
       4        1       32 1        
       5        2        6 1        
       6        2        3 2        
       7        3        4 1        
       8        3       22 1        
       9        4        5 2        
      10        4       33 1        
      11        5        6 1        
      12        5        7 1        
      13        7        8 2        
      14        7        9 1        
      15        9       10 1        
      16       10       11 1        
      17       10       34 1        
      18       10       35 1        
      19       11       12 2        
      20       11       13 am       
      21       13       14 1        
      22       13       36 1        
      23       14       19 ar       
      24       14       15 ar       
      25       15       16 ar       
      26       15       37 1        
      27       16       17 ar       
      28       16       21 1        
      29       17       18 ar       
      30       17       38 1        
      31       18       19 ar       
      32       18       39 1        
      33       19       20 1        
      34       22       23 2        
      35       22       24 2        
      36       22       25 1        
      37       25       29 1        
      38       25       26 1        
      39       26       27 1        
      40       26       40 1        
      41       26       41 1        
      42       27       28 1        
      43       27       42 1        
      44       27       43 1        
      45       28       29 1        
      46       28       44 1        
      47       28       45 1        
      48       29       46 1        
      49       29       47 1        

