#        1GCZ_R01_S0001_C0000_L00006_S0001_C0004_G0010_E0001.mol2
#        Tue Jun  6 14:07:30 2017
#        Descriptor:     32     2    31    11     5    14
#        Energy - RMSD - RMSD MassCentre:     -56.2349    999.9999    999.9999
#        Receptor:       1  Surface Point:     1  Conformer:     0
#        Ligand:         6  Surface Point:     1  Conformer:     4
#        BUDE Formal Charge: 0
#        ATOM Count: 47
#        Heavy ATOM Count: 29
@<TRIPOS>MOLECULE
ZINC61419927_1GCZ_R01_S0001_C0000_L00006_S0001_C0004_G0010_E0001
 47 49 0 0 0
SMALL
USER_CHARGES
@<TRIPOS>ATOM
       1 C1         4.3976   -0.0196    4.3640 C.3       1 <0>        -0.1238 
       2 C2         3.4019   -0.7924    5.1954 C.2       1 <0>         0.1810 
       3 C3         2.3945   -0.3125    5.9373 C.2       1 <0>        -0.7869 
       4 C4         1.7823   -1.5372    6.4985 C.2       1 <0>        -0.0116 
       5 C5         2.5274   -2.5330    5.9996 C.2       1 <0>        -0.0716 
       6 O1         3.5446   -2.1780    5.1943 O.3       1 <0>        -0.1351 
       7 C6         2.2740   -3.9613    6.2934 C.2       1 <0>         0.5609 
       8 O2         1.3676   -4.2723    7.0072 O.2       1 <0>        -0.4736 
       9 O3         3.0670   -4.9117    5.7547 O.3       1 <0>        -0.3174 
      10 C7         2.7835   -6.2780    6.0672 C.3       1 <0>         0.0499 
      11 C8         3.7810   -7.1707    5.3684 C.2       1 <0>         0.5192 
      12 O4         3.3876   -8.1114    4.6804 O.2       1 <0>        -0.4838 
      13 N1         5.0844   -6.9391    5.4972 N.am      1 <0>        -0.6609 
      14 C9         6.0190   -7.7756    4.8423 C.ar      1 <0>         0.1328 
      15 C10        5.6099   -8.8424    4.0335 C.ar      1 <0>        -0.1070 
      16 C11        6.5602   -9.6808    3.4380 C.ar      1 <0>        -0.0227 
      17 C12        7.9244   -9.4401    3.6225 C.ar      1 <0>        -0.0992 
      18 C13        8.3397   -8.3490    4.3951 C.ar      1 <0>        -0.1155 
      19 C14        7.3865   -7.5144    4.9910 C.ar      1 <0>         0.0725 
      20 F1         7.7831   -6.4457    5.7139 F         1 <0>        -0.1311 
      21 Cl1        6.0442  -11.0230    2.4584 Cl        1 <0>        -0.0505 
      22 S1         1.8563    1.4240    6.2208 S.o2      1 <0>         2.7353 
      23 O5         1.4839    2.0164    4.9736 O.2       1 <0>        -0.9438 
      24 O6         2.9313    2.1688    6.7991 O.2       1 <0>        -0.9431 
      25 N2         0.4836    1.4405    7.3061 N.pl3     1 <0>        -1.0117 
      26 C15        0.6661    1.4197    8.7316 C.3       1 <0>         0.1158 
      27 C16       -0.7568    1.7741    9.2024 C.3       1 <0>        -0.1296 
      28 C17       -1.6560    1.1590    8.1141 C.3       1 <0>        -0.1292 
      29 C18       -0.9001    1.4809    6.8115 C.3       1 <0>         0.1079 
      30 H1         4.1868    1.0448    4.4435 H         1 <0>         0.1035 
      31 H2         4.3183   -0.3290    3.3240 H         1 <0>         0.1234 
      32 H3         5.4039   -0.2186    4.7267 H         1 <0>         0.1077 
      33 H4         0.9284   -1.5967    7.1573 H         1 <0>         0.1837 
      34 H5         1.7782   -6.5248    5.7326 H         1 <0>         0.1136 
      35 H6         2.8548   -6.4258    7.1428 H         1 <0>         0.1125 
      36 H7         5.4063   -6.1665    6.0623 H         1 <0>         0.4215 
      37 H8         4.5616   -9.0258    3.8498 H         1 <0>         0.1733 
      38 H9         8.6541  -10.0924    3.1659 H         1 <0>         0.1477 
      39 H10        9.3911   -8.1454    4.5347 H         1 <0>         0.1529 
      40 H11        0.9535    0.4149    9.0341 H         1 <0>         0.0779 
      41 H12        1.4154    2.1327    9.0690 H         1 <0>         0.0674 
      42 H13       -0.8818    2.8549    9.1909 H         1 <0>         0.0847 
      43 H14       -0.9765    1.4075   10.2030 H         1 <0>         0.0771 
      44 H15       -1.6909    0.0805    8.2533 H         1 <0>         0.0805 
      45 H16       -2.6710    1.5508    8.1241 H         1 <0>         0.0863 
      46 H17       -1.1125    2.4861    6.4537 H         1 <0>         0.0693 
      47 H18       -1.0879    0.7589    6.0196 H         1 <0>         0.0896 
@<TRIPOS>BOND
       1        1        2 1        
       2        1       30 1        
       3        1       31 1        
       4        1       32 1        
       5        2        6 1        
       6        2        3 2        
       7        3        4 1        
       8        3       22 1        
       9        4        5 2        
      10        4       33 1        
      11        5        6 1        
      12        5        7 1        
      13        7        8 2        
      14        7        9 1        
      15        9       10 1        
      16       10       11 1        
      17       10       34 1        
      18       10       35 1        
      19       11       12 2        
      20       11       13 am       
      21       13       14 1        
      22       13       36 1        
      23       14       19 ar       
      24       14       15 ar       
      25       15       16 ar       
      26       15       37 1        
      27       16       17 ar       
      28       16       21 1        
      29       17       18 ar       
      30       17       38 1        
      31       18       19 ar       
      32       18       39 1        
      33       19       20 1        
      34       22       23 2        
      35       22       24 2        
      36       22       25 1        
      37       25       29 1        
      38       25       26 1        
      39       26       27 1        
      40       26       40 1        
      41       26       41 1        
      42       27       28 1        
      43       27       42 1        
      44       27       43 1        
      45       28       29 1        
      46       28       44 1        
      47       28       45 1        
      48       29       46 1        
      49       29       47 1        

