#        1GCZ_R01_S0001_C0000_L00003_S0001_C0000_G0010_E0001.mol2
#        Tue Jun  6 14:03:25 2017
#        Descriptor:     23    31    19     8    12    12
#        Energy - RMSD - RMSD MassCentre:     -64.9260    999.9999    999.9999
#        Receptor:       1  Surface Point:     1  Conformer:     0
#        Ligand:         3  Surface Point:     1  Conformer:     0
#        BUDE Formal Charge: 0
#        ATOM Count: 58
#        Heavy ATOM Count: 30
@<TRIPOS>MOLECULE
ZINC61580633_1GCZ_R01_S0001_C0000_L00003_S0001_C0000_G0010_E0001
 58 59 0 0 0
SMALL
USER_CHARGES
@<TRIPOS>ATOM
       1 C1         0.1081    3.0942   -5.0901 C.3       1 <0>        -0.1532 
       2 C2        -0.6236    1.9731   -4.3492 C.3       1 <0>        -0.1224 
       3 C3         0.0448    1.7369   -2.9934 C.3       1 <0>        -0.1198 
       4 C4        -0.6868    0.6159   -2.2525 C.3       1 <0>         0.0610 
       5 O1        -0.0626    0.3953   -0.9862 O.3       1 <0>        -0.3878 
       6 C5        -0.6725   -0.6377   -0.2096 C.3       1 <0>         0.0487 
       7 C6         0.0738   -0.7860    1.1178 C.3       1 <0>         0.1244 
       8 N1        -0.0859    0.4378    1.9070 N.am      1 <0>        -0.7216 
       9 C7         0.4894    0.5361    3.1219 C.2       1 <0>         0.5161 
      10 O2         1.1393   -0.3886    3.5617 O.2       1 <0>        -0.5151 
      11 C8         0.3251    1.7951    3.9338 C.3       1 <0>         0.0490 
      12 O3         1.0221    1.6565    5.1737 O.3       1 <0>        -0.3194 
      13 C9         0.9745    2.7033    6.0230 C.2       1 <0>         0.5417 
      14 O4         0.3576    3.7064    5.7183 O.2       1 <0>        -0.5337 
      15 C10        1.6656    2.6322    7.3119 C.2       1 <0>        -0.2559 
      16 C11        2.4146    1.4616    7.7096 C.2       1 <0>        -0.0791 
      17 C12        3.0025    1.5238    8.9183 C.2       1 <0>        -0.2585 
      18 S1         2.5517    3.1397    9.5114 S.3       1 <0>         0.3028 
      19 C13        1.6406    3.6880    8.2136 C.2       1 <0>         0.0893 
      20 N2         1.0069    4.9114    8.0746 N.am      1 <0>        -0.6099 
      21 C14        1.0882    5.8282    9.0592 C.2       1 <0>         0.5551 
      22 O5         1.7177    5.5811   10.0693 O.2       1 <0>        -0.4939 
      23 C15        0.4119    7.1339    8.9109 C.ar      1 <0>        -0.1466 
      24 C16       -0.3168    7.4187    7.7547 C.ar      1 <0>        -0.0772 
      25 C17       -0.9460    8.6392    7.6229 C.ar      1 <0>        -0.1241 
      26 C18       -0.8562    9.5802    8.6335 C.ar      1 <0>        -0.0446 
      27 C19       -0.1352    9.3044    9.7818 C.ar      1 <0>        -0.1261 
      28 C20        0.4941    8.0857    9.9289 C.ar      1 <0>        -0.0460 
      29 C21       -1.5462   10.9113    8.4825 C.3       1 <0>        -0.0928 
      30 C22       -2.9660   10.8164    9.0447 C.3       1 <0>        -0.1485 
      31 H1        -0.3681    3.2625   -6.0561 H         1 <0>         0.0567 
      32 H2         0.0645    4.0090   -4.4992 H         1 <0>         0.0554 
      33 H3         1.1491    2.8096   -5.2429 H         1 <0>         0.0557 
      34 H4        -1.6647    2.2577   -4.1965 H         1 <0>         0.0632 
      35 H5        -0.5800    1.0583   -4.9402 H         1 <0>         0.0635 
      36 H6         1.0859    1.4523   -3.1462 H         1 <0>         0.0711 
      37 H7         0.0012    2.6518   -2.4025 H         1 <0>         0.0704 
      38 H8        -1.7279    0.9005   -2.0997 H         1 <0>         0.0498 
      39 H9        -0.6433   -0.2990   -2.8434 H         1 <0>         0.0505 
      40 H10       -1.7132   -0.3792   -0.0144 H         1 <0>         0.0584 
      41 H11       -0.6286   -1.5787   -0.7581 H         1 <0>         0.0702 
      42 H12       -0.3344   -1.6314    1.6716 H         1 <0>         0.0872 
      43 H13        1.1324   -0.9567    0.9224 H         1 <0>         0.0805 
      44 H14       -0.6058    1.1775    1.5554 H         1 <0>         0.4058 
      45 H15        0.7333    2.6404    3.3800 H         1 <0>         0.1008 
      46 H16       -0.7336    1.9658    4.1293 H         1 <0>         0.0999 
      47 H17        2.4969    0.5908    7.0761 H         1 <0>         0.1557 
      48 H18        3.6033    0.7733    9.4104 H         1 <0>         0.1929 
      49 H19        0.5044    5.1087    7.2687 H         1 <0>         0.4317 
      50 H20       -0.3874    6.6853    6.9651 H         1 <0>         0.1287 
      51 H21       -1.5098    8.8610    6.7289 H         1 <0>         0.1326 
      52 H22       -0.0684   10.0435   10.5665 H         1 <0>         0.1342 
      53 H23        1.0528    7.8700   10.8277 H         1 <0>         0.1410 
      54 H24       -0.9895   11.6731    9.0281 H         1 <0>         0.0777 
      55 H25       -1.5905   11.1800    7.4270 H         1 <0>         0.0771 
      56 H26       -3.4651   11.7793    8.9354 H         1 <0>         0.0623 
      57 H27       -3.5228   10.0547    8.4989 H         1 <0>         0.0572 
      58 H28       -2.9217   10.5478   10.1001 H         1 <0>         0.0578 
@<TRIPOS>BOND
       1        1        2 1        
       2        1       31 1        
       3        1       32 1        
       4        1       33 1        
       5        2        3 1        
       6        2       34 1        
       7        2       35 1        
       8        3        4 1        
       9        3       36 1        
      10        3       37 1        
      11        4        5 1        
      12        4       38 1        
      13        4       39 1        
      14        5        6 1        
      15        6        7 1        
      16        6       40 1        
      17        6       41 1        
      18        7        8 1        
      19        7       42 1        
      20        7       43 1        
      21        8        9 am       
      22        8       44 1        
      23        9       10 2        
      24        9       11 1        
      25       11       12 1        
      26       11       45 1        
      27       11       46 1        
      28       12       13 1        
      29       13       14 2        
      30       13       15 1        
      31       15       19 2        
      32       15       16 1        
      33       16       17 2        
      34       16       47 1        
      35       17       18 1        
      36       17       48 1        
      37       18       19 1        
      38       19       20 1        
      39       20       21 am       
      40       20       49 1        
      41       21       22 2        
      42       21       23 1        
      43       23       28 ar       
      44       23       24 ar       
      45       24       25 ar       
      46       24       50 1        
      47       25       26 ar       
      48       25       51 1        
      49       26       27 ar       
      50       26       29 1        
      51       27       28 ar       
      52       27       52 1        
      53       28       53 1        
      54       29       30 1        
      55       29       54 1        
      56       29       55 1        
      57       30       56 1        
      58       30       57 1        
      59       30       58 1        

