#        1GCZ_R01_S0001_C0000_L00006_S0001_C0005_G0010_E0001.mol2
#        Tue Jun  6 09:56:16 2017
#        Descriptor:      3     2    11     9     6    15
#        Energy - RMSD - RMSD MassCentre:     -53.5152    999.9999    999.9999
#        Receptor:       1  Surface Point:     1  Conformer:     0
#        Ligand:         6  Surface Point:     1  Conformer:     5
#        BUDE Formal Charge: 0
#        ATOM Count: 47
#        Heavy ATOM Count: 29
@<TRIPOS>MOLECULE
ZINC61419927_1GCZ_R01_S0001_C0000_L00006_S0001_C0005_G0010_E0001
 47 49 0 0 0
SMALL
USER_CHARGES
@<TRIPOS>ATOM
       1 C1        -1.9858   -5.4374    8.2255 C.3       1 <0>        -0.1238 
       2 C2        -1.0600   -4.5297    7.4515 C.2       1 <0>         0.1810 
       3 C3         0.2270   -4.7330    7.1386 C.2       1 <0>        -0.7869 
       4 C4         0.5813   -3.5131    6.3796 C.2       1 <0>        -0.0116 
       5 C5        -0.5490   -2.7934    6.3720 C.2       1 <0>        -0.0716 
       6 O1        -1.6079   -3.3294    7.0050 O.3       1 <0>        -0.1351 
       7 C6        -0.6665   -1.4749    5.7100 C.2       1 <0>         0.5609 
       8 O2         0.2759   -1.0035    5.1466 O.2       1 <0>        -0.4736 
       9 O3        -1.8384   -0.8056    5.7430 O.3       1 <0>        -0.3174 
      10 C7        -1.9041    0.4646    5.0894 C.3       1 <0>         0.0499 
      11 C8        -0.9507    1.4246    5.7600 C.2       1 <0>         0.5192 
      12 O4        -0.1339    2.0507    5.0864 O.2       1 <0>        -0.4838 
      13 N1        -0.9948    1.5925    7.0786 N.am      1 <0>        -0.6609 
      14 C9        -0.1014    2.4921    7.7070 C.ar      1 <0>         0.1328 
      15 C10        0.8274    3.2386    6.9722 C.ar      1 <0>        -0.1070 
      16 C11        1.7298    4.0843    7.6286 C.ar      1 <0>        -0.0227 
      17 C12        1.6897    4.2118    9.0197 C.ar      1 <0>        -0.0992 
      18 C13        0.7346    3.5006    9.7559 C.ar      1 <0>        -0.1155 
      19 C14       -0.1644    2.6540    9.0962 C.ar      1 <0>         0.0725 
      20 F1        -1.1042    1.9878    9.8000 F         1 <0>        -0.1311 
      21 Cl1        2.9014    4.9864    6.7115 Cl        1 <0>        -0.0505 
      22 S1         1.3282   -6.1556    7.5245 S.o2      1 <0>         2.7353 
      23 O5         0.7915   -7.3451    6.9397 O.2       1 <0>        -0.9438 
      24 O6         1.4165   -6.3204    8.9422 O.2       1 <0>        -0.9431 
      25 N2         2.9232   -5.8539    6.8708 N.pl3     1 <0>        -1.0117 
      26 C15        3.8939   -5.0922    7.6078 C.3       1 <0>         0.1158 
      27 C16        5.1655   -5.3936    6.7930 C.3       1 <0>        -0.1296 
      28 C17        4.6364   -5.5652    5.3570 C.3       1 <0>        -0.1292 
      29 C18        3.3358   -6.3654    5.5559 C.3       1 <0>         0.1079 
      30 H1        -1.4487   -6.3367    8.5193 H         1 <0>         0.1035 
      31 H2        -2.8335   -5.7084    7.5998 H         1 <0>         0.1234 
      32 H3        -2.3407   -4.9197    9.1142 H         1 <0>         0.1077 
      33 H4         1.5376   -3.2743    5.9379 H         1 <0>         0.1837 
      34 H5        -2.9179    0.8538    5.1555 H         1 <0>         0.1136 
      35 H6        -1.6271    0.3485    4.0438 H         1 <0>         0.1125 
      36 H7        -1.6658    1.0779    7.6308 H         1 <0>         0.4215 
      37 H8         0.8531    3.1812    5.8941 H         1 <0>         0.1733 
      38 H9         2.3912    4.8610    9.5226 H         1 <0>         0.1477 
      39 H10        0.6857    3.6004   10.8302 H         1 <0>         0.1529 
      40 H11        3.6235   -4.0394    7.5606 H         1 <0>         0.0779 
      41 H12        3.9711   -5.4046    8.6472 H         1 <0>         0.0674 
      42 H13        5.5912   -6.3383    7.1250 H         1 <0>         0.0847 
      43 H14        5.9226   -4.6176    6.8850 H         1 <0>         0.0771 
      44 H15        4.3977   -4.5850    4.9496 H         1 <0>         0.0805 
      45 H16        5.3436   -6.0614    4.6955 H         1 <0>         0.0863 
      46 H17        3.5226   -7.4338    5.6411 H         1 <0>         0.0693 
      47 H18        2.5974   -6.1798    4.7787 H         1 <0>         0.0896 
@<TRIPOS>BOND
       1        1        2 1        
       2        1       30 1        
       3        1       31 1        
       4        1       32 1        
       5        2        6 1        
       6        2        3 2        
       7        3        4 1        
       8        3       22 1        
       9        4        5 2        
      10        4       33 1        
      11        5        6 1        
      12        5        7 1        
      13        7        8 2        
      14        7        9 1        
      15        9       10 1        
      16       10       11 1        
      17       10       34 1        
      18       10       35 1        
      19       11       12 2        
      20       11       13 am       
      21       13       14 1        
      22       13       36 1        
      23       14       19 ar       
      24       14       15 ar       
      25       15       16 ar       
      26       15       37 1        
      27       16       17 ar       
      28       16       21 1        
      29       17       18 ar       
      30       17       38 1        
      31       18       19 ar       
      32       18       39 1        
      33       19       20 1        
      34       22       23 2        
      35       22       24 2        
      36       22       25 1        
      37       25       29 1        
      38       25       26 1        
      39       26       27 1        
      40       26       40 1        
      41       26       41 1        
      42       27       28 1        
      43       27       42 1        
      44       27       43 1        
      45       28       29 1        
      46       28       44 1        
      47       28       45 1        
      48       29       46 1        
      49       29       47 1        

