#        1GCZ_R01_S0001_C0000_L00006_S0001_C0005_G0010_E0001.mol2
#        Tue Jun  6 14:07:32 2017
#        Descriptor:     13     2    32    11     7    11
#        Energy - RMSD - RMSD MassCentre:     -69.4218    999.9999    999.9999
#        Receptor:       1  Surface Point:     1  Conformer:     0
#        Ligand:         6  Surface Point:     1  Conformer:     5
#        BUDE Formal Charge: 0
#        ATOM Count: 47
#        Heavy ATOM Count: 29
@<TRIPOS>MOLECULE
ZINC61419927_1GCZ_R01_S0001_C0000_L00006_S0001_C0005_G0010_E0001
 47 49 0 0 0
SMALL
USER_CHARGES
@<TRIPOS>ATOM
       1 C1        -0.7846   -1.1786    5.8067 C.3       1 <0>        -0.1238 
       2 C2         0.3590   -0.6997    4.9448 C.2       1 <0>         0.1810 
       3 C3         0.3222   -0.3100    3.6632 C.2       1 <0>        -0.7869 
       4 C4         1.7312    0.0454    3.3833 C.2       1 <0>        -0.0116 
       5 C5         2.3645   -0.1944    4.5396 C.2       1 <0>        -0.0716 
       6 O1         1.6111   -0.6562    5.5537 O.3       1 <0>        -0.1351 
       7 C6         3.8152    0.0277    4.7310 C.2       1 <0>         0.5609 
       8 O2         4.4802    0.4406    3.8283 O.2       1 <0>        -0.4736 
       9 O3         4.3861   -0.2362    5.9255 O.3       1 <0>        -0.3174 
      10 C7         5.7908   -0.0061    6.0630 C.3       1 <0>         0.0499 
      11 C8         6.5435   -0.9171    5.1230 C.2       1 <0>         0.5192 
      12 O4         7.3836   -0.4498    4.3556 O.2       1 <0>        -0.4838 
      13 N1         6.2978   -2.2242    5.1255 N.am      1 <0>        -0.6609 
      14 C9         7.0031   -3.0779    4.2446 C.ar      1 <0>         0.1328 
      15 C10        7.9817   -2.5868    3.3721 C.ar      1 <0>        -0.1070 
      16 C11        8.6277   -3.4503    2.4792 C.ar      1 <0>        -0.0227 
      17 C12        8.3215   -4.8139    2.4735 C.ar      1 <0>        -0.0992 
      18 C13        7.3749   -5.3177    3.3735 C.ar      1 <0>        -0.1155 
      19 C14        6.7292   -4.4507    4.2632 C.ar      1 <0>         0.0725 
      20 F1         5.8360   -4.9371    5.1508 F         1 <0>        -0.1311 
      21 Cl1        9.8214   -2.8280    1.3768 Cl        1 <0>        -0.0505 
      22 S1        -1.0965   -0.2149    2.4955 S.o2      1 <0>         2.7353 
      23 O5        -2.0741    0.6946    3.0076 O.2       1 <0>        -0.9438 
      24 O6        -1.6826   -1.5110    2.3495 O.2       1 <0>        -0.9431 
      25 N2        -0.5342    0.3510    0.9379 N.pl3     1 <0>        -1.0117 
      26 C15        0.0105   -0.5619   -0.0294 C.3       1 <0>         0.1158 
      27 C16        0.0333    0.3351   -1.2810 C.3       1 <0>        -0.1296 
      28 C17        0.2844    1.7418   -0.7070 C.3       1 <0>        -0.1292 
      29 C18       -0.5989    1.7685    0.5543 C.3       1 <0>         0.1079 
      30 H1        -1.7042   -1.1694    5.2256 H         1 <0>         0.1035 
      31 H2        -0.8910   -0.5195    6.6657 H         1 <0>         0.1234 
      32 H3        -0.5809   -2.1912    6.1484 H         1 <0>         0.1077 
      33 H4         2.1385    0.4142    2.4534 H         1 <0>         0.1837 
      34 H5         6.0927   -0.2119    7.0878 H         1 <0>         0.1136 
      35 H6         6.0133    1.0307    5.8201 H         1 <0>         0.1125 
      36 H7         5.6078   -2.6068    5.7560 H         1 <0>         0.4215 
      37 H8         8.2581   -1.5428    3.3835 H         1 <0>         0.1733 
      38 H9         8.8182   -5.4756    1.7794 H         1 <0>         0.1477 
      39 H10        7.1389   -6.3715    3.3871 H         1 <0>         0.1529 
      40 H11        1.0133   -0.8466    0.2823 H         1 <0>         0.0779 
      41 H12       -0.6009   -1.4530   -0.1560 H         1 <0>         0.0674 
      42 H13       -0.9465    0.3192   -1.7540 H         1 <0>         0.0847 
      43 H14        0.7789    0.0266   -2.0110 H         1 <0>         0.0771 
      44 H15        1.3297    1.8228   -0.4165 H         1 <0>         0.0805 
      45 H16        0.0483    2.5398   -1.4080 H         1 <0>         0.0863 
      46 H17       -1.6321    2.0199    0.3241 H         1 <0>         0.0693 
      47 H18       -0.2196    2.4339    1.3269 H         1 <0>         0.0896 
@<TRIPOS>BOND
       1        1        2 1        
       2        1       30 1        
       3        1       31 1        
       4        1       32 1        
       5        2        6 1        
       6        2        3 2        
       7        3        4 1        
       8        3       22 1        
       9        4        5 2        
      10        4       33 1        
      11        5        6 1        
      12        5        7 1        
      13        7        8 2        
      14        7        9 1        
      15        9       10 1        
      16       10       11 1        
      17       10       34 1        
      18       10       35 1        
      19       11       12 2        
      20       11       13 am       
      21       13       14 1        
      22       13       36 1        
      23       14       19 ar       
      24       14       15 ar       
      25       15       16 ar       
      26       15       37 1        
      27       16       17 ar       
      28       16       21 1        
      29       17       18 ar       
      30       17       38 1        
      31       18       19 ar       
      32       18       39 1        
      33       19       20 1        
      34       22       23 2        
      35       22       24 2        
      36       22       25 1        
      37       25       29 1        
      38       25       26 1        
      39       26       27 1        
      40       26       40 1        
      41       26       41 1        
      42       27       28 1        
      43       27       42 1        
      44       27       43 1        
      45       28       29 1        
      46       28       44 1        
      47       28       45 1        
      48       29       46 1        
      49       29       47 1        

