#        1GCZ_R01_S0001_C0000_L00006_S0001_C0006_G0010_E0001.mol2
#        Tue Jun  6 09:56:17 2017
#        Descriptor:     25    33     2    11     8    14
#        Energy - RMSD - RMSD MassCentre:     -54.8611    999.9999    999.9999
#        Receptor:       1  Surface Point:     1  Conformer:     0
#        Ligand:         6  Surface Point:     1  Conformer:     6
#        BUDE Formal Charge: 0
#        ATOM Count: 47
#        Heavy ATOM Count: 29
@<TRIPOS>MOLECULE
ZINC61419927_1GCZ_R01_S0001_C0000_L00006_S0001_C0006_G0010_E0001
 47 49 0 0 0
SMALL
USER_CHARGES
@<TRIPOS>ATOM
       1 C1         0.9953    2.0836    4.8403 C.3       1 <0>        -0.1238 
       2 C2         1.0472    0.6453    5.2967 C.2       1 <0>         0.1810 
       3 C3         0.0694   -0.0811    5.8553 C.2       1 <0>        -0.7869 
       4 C4         0.7133   -1.3962    6.0699 C.2       1 <0>        -0.0116 
       5 C5         1.9598   -1.2287    5.6072 C.2       1 <0>        -0.0716 
       6 O1         2.2616   -0.0131    5.1172 O.3       1 <0>        -0.1351 
       7 C6         2.9787   -2.3022    5.6151 C.2       1 <0>         0.5609 
       8 O2         2.7056   -3.3815    6.0491 O.2       1 <0>        -0.4736 
       9 O3         4.2161   -2.0612    5.1320 O.3       1 <0>        -0.3174 
      10 C7         5.1668   -3.1289    5.1604 C.3       1 <0>         0.0499 
      11 C8         6.4759   -2.6516    4.5783 C.2       1 <0>         0.5192 
      12 O4         7.0222   -3.2959    3.6842 O.2       1 <0>        -0.4838 
      13 N1         7.0373   -1.5349    5.0328 N.am      1 <0>        -0.6609 
      14 C9         8.2639   -1.0876    4.4874 C.ar      1 <0>         0.1328 
      15 C10        8.9051   -1.7813    3.4542 C.ar      1 <0>        -0.1070 
      16 C11       10.1418   -1.3391    2.9692 C.ar      1 <0>        -0.0227 
      17 C12       10.7305   -0.1847    3.4925 C.ar      1 <0>        -0.0992 
      18 C13       10.0733    0.5373    4.4960 C.ar      1 <0>        -0.1155 
      19 C14        8.8379    0.0904    4.9801 C.ar      1 <0>         0.0725 
      20 F1         8.1887    0.7989    5.9282 F         1 <0>        -0.1311 
      21 Cl1       10.9473   -2.2233    1.7056 Cl        1 <0>        -0.0505 
      22 S1        -1.6616    0.3847    6.2702 S.o2      1 <0>         2.7353 
      23 O5        -2.4419   -0.7994    6.4545 O.2       1 <0>        -0.9438 
      24 O6        -2.2165    1.1590    5.2037 O.2       1 <0>        -0.9431 
      25 N2        -1.6756    1.3267    7.7449 N.pl3     1 <0>        -1.0117 
      26 C15       -1.4555    2.7467    7.7190 C.3       1 <0>         0.1158 
      27 C16       -1.8863    3.1243    9.1485 C.3       1 <0>        -0.1296 
      28 C17       -1.5068    1.8816    9.9751 C.3       1 <0>        -0.1292 
      29 C18       -1.9155    0.7131    9.0590 C.3       1 <0>         0.1079 
      30 H1         0.0036    2.4884    5.0310 H         1 <0>         0.1035 
      31 H2         1.2092    2.1331    3.7747 H         1 <0>         0.1234 
      32 H3         1.7357    2.6638    5.3869 H         1 <0>         0.1077 
      33 H4         0.2653   -2.2792    6.5010 H         1 <0>         0.1837 
      34 H5         4.7911   -3.9640    4.5729 H         1 <0>         0.1136 
      35 H6         5.3215   -3.4487    6.1887 H         1 <0>         0.1125 
      36 H7         6.5879   -1.0067    5.7670 H         1 <0>         0.4215 
      37 H8         8.4516   -2.6561    3.0120 H         1 <0>         0.1733 
      38 H9        11.6871    0.1499    3.1195 H         1 <0>         0.1477 
      39 H10       10.5123    1.4376    4.8996 H         1 <0>         0.1529 
      40 H11       -0.3969    2.9350    7.5527 H         1 <0>         0.0779 
      41 H12       -2.0420    3.2482    6.9519 H         1 <0>         0.0674 
      42 H13       -2.9668    3.2488    9.1787 H         1 <0>         0.0847 
      43 H14       -1.4188    4.0399    9.5050 H         1 <0>         0.0771 
      44 H15       -0.4282    1.8681   10.1169 H         1 <0>         0.0805 
      45 H16       -1.9928    1.8486   10.9481 H         1 <0>         0.0863 
      46 H17       -2.9742    0.4776    9.1450 H         1 <0>         0.0693 
      47 H18       -1.3225   -0.1844    9.2218 H         1 <0>         0.0896 
@<TRIPOS>BOND
       1        1        2 1        
       2        1       30 1        
       3        1       31 1        
       4        1       32 1        
       5        2        6 1        
       6        2        3 2        
       7        3        4 1        
       8        3       22 1        
       9        4        5 2        
      10        4       33 1        
      11        5        6 1        
      12        5        7 1        
      13        7        8 2        
      14        7        9 1        
      15        9       10 1        
      16       10       11 1        
      17       10       34 1        
      18       10       35 1        
      19       11       12 2        
      20       11       13 am       
      21       13       14 1        
      22       13       36 1        
      23       14       19 ar       
      24       14       15 ar       
      25       15       16 ar       
      26       15       37 1        
      27       16       17 ar       
      28       16       21 1        
      29       17       18 ar       
      30       17       38 1        
      31       18       19 ar       
      32       18       39 1        
      33       19       20 1        
      34       22       23 2        
      35       22       24 2        
      36       22       25 1        
      37       25       29 1        
      38       25       26 1        
      39       26       27 1        
      40       26       40 1        
      41       26       41 1        
      42       27       28 1        
      43       27       42 1        
      44       27       43 1        
      45       28       29 1        
      46       28       44 1        
      47       28       45 1        
      48       29       46 1        
      49       29       47 1        

