#        1GCZ_R01_S0001_C0000_L00006_S0001_C0006_G0010_E0001.mol2
#        Tue Jun  6 14:07:34 2017
#        Descriptor:      5    22    17    12     7    13
#        Energy - RMSD - RMSD MassCentre:     -57.9789    999.9999    999.9999
#        Receptor:       1  Surface Point:     1  Conformer:     0
#        Ligand:         6  Surface Point:     1  Conformer:     6
#        BUDE Formal Charge: 0
#        ATOM Count: 47
#        Heavy ATOM Count: 29
@<TRIPOS>MOLECULE
ZINC61419927_1GCZ_R01_S0001_C0000_L00006_S0001_C0006_G0010_E0001
 47 49 0 0 0
SMALL
USER_CHARGES
@<TRIPOS>ATOM
       1 C1         2.4911    1.2364    3.4421 C.3       1 <0>        -0.1238 
       2 C2         2.2161    0.0386    4.3193 C.2       1 <0>         0.1810 
       3 C3         1.1959   -0.1485    5.1679 C.2       1 <0>        -0.7869 
       4 C4         1.4665   -1.4939    5.7216 C.2       1 <0>        -0.0116 
       5 C5         2.5978   -1.8759    5.1132 C.2       1 <0>        -0.0716 
       6 O1         3.1353   -1.0051    4.2404 O.3       1 <0>        -0.1351 
       7 C6         3.2505   -3.1811    5.3601 C.2       1 <0>         0.5609 
       8 O2         2.7682   -3.9529    6.1345 O.2       1 <0>        -0.4736 
       9 O3         4.3903   -3.4989    4.7102 O.3       1 <0>        -0.3174 
      10 C7         4.9844   -4.7710    4.9812 C.3       1 <0>         0.0499 
      11 C8         6.2403   -4.9248    4.1569 C.2       1 <0>         0.5192 
      12 O4         6.4005   -5.9271    3.4621 O.2       1 <0>        -0.4838 
      13 N1         7.1723   -3.9764    4.1827 N.am      1 <0>        -0.6609 
      14 C9         8.3491   -4.1205    3.4104 C.ar      1 <0>         0.1328 
      15 C10        8.5580   -5.2360    2.5906 C.ar      1 <0>        -0.1070 
      16 C11        9.7542   -5.3718    1.8759 C.ar      1 <0>        -0.0227 
      17 C12       10.7358   -4.3799    1.9524 C.ar      1 <0>        -0.0992 
      18 C13       10.5143   -3.2415    2.7367 C.ar      1 <0>        -0.1155 
      19 C14        9.3177   -3.1106    3.4519 C.ar      1 <0>         0.0725 
      20 F1         9.0894   -2.0019    4.1873 F         1 <0>        -0.1311 
      21 Cl1       10.0196   -6.7754    0.8825 Cl        1 <0>        -0.0505 
      22 S1        -0.2190    0.9536    5.5788 S.o2      1 <0>         2.7353 
      23 O5        -1.2549    0.1870    6.1985 O.2       1 <0>        -0.9438 
      24 O6        -0.7214    1.5523    4.3813 O.2       1 <0>        -0.9431 
      25 N2         0.3158    2.2057    6.6782 N.pl3     1 <0>        -1.0117 
      26 C15        0.9227    3.4126    6.1875 C.3       1 <0>         0.1158 
      27 C16        0.8964    4.2785    7.4608 C.3       1 <0>        -0.1296 
      28 C17        1.0550    3.2491    8.5952 C.3       1 <0>        -0.1292 
      29 C18        0.1643    2.0802    8.1349 C.3       1 <0>         0.1079 
      30 H1         1.7109    1.9801    3.5899 H         1 <0>         0.1035 
      31 H2         2.5044    0.9260    2.3994 H         1 <0>         0.1234 
      32 H3         3.4558    1.6646    3.7061 H         1 <0>         0.1077 
      33 H4         0.8753   -2.0311    6.4484 H         1 <0>         0.1837 
      34 H5         4.2820   -5.5609    4.7237 H         1 <0>         0.1136 
      35 H6         5.2333   -4.8366    6.0382 H         1 <0>         0.1125 
      36 H7         7.0398   -3.1539    4.7537 H         1 <0>         0.4215 
      37 H8         7.7987   -5.9974    2.4902 H         1 <0>         0.1733 
      38 H9        11.6594   -4.4911    1.4039 H         1 <0>         0.1477 
      39 H10       11.2600   -2.4625    2.7940 H         1 <0>         0.1529 
      40 H11        1.9396    3.1906    5.8705 H         1 <0>         0.0779 
      41 H12        0.3695    3.8546    5.3614 H         1 <0>         0.0674 
      42 H13       -0.0776    4.7547    7.5532 H         1 <0>         0.0847 
      43 H14        1.6643    5.0493    7.4660 H         1 <0>         0.0771 
      44 H15        2.0914    2.9201    8.6306 H         1 <0>         0.0805 
      45 H16        0.7733    3.6392    9.5711 H         1 <0>         0.0863 
      46 H17       -0.8813    2.2380    8.3908 H         1 <0>         0.0693 
      47 H18        0.4963    1.1158    8.5135 H         1 <0>         0.0896 
@<TRIPOS>BOND
       1        1        2 1        
       2        1       30 1        
       3        1       31 1        
       4        1       32 1        
       5        2        6 1        
       6        2        3 2        
       7        3        4 1        
       8        3       22 1        
       9        4        5 2        
      10        4       33 1        
      11        5        6 1        
      12        5        7 1        
      13        7        8 2        
      14        7        9 1        
      15        9       10 1        
      16       10       11 1        
      17       10       34 1        
      18       10       35 1        
      19       11       12 2        
      20       11       13 am       
      21       13       14 1        
      22       13       36 1        
      23       14       19 ar       
      24       14       15 ar       
      25       15       16 ar       
      26       15       37 1        
      27       16       17 ar       
      28       16       21 1        
      29       17       18 ar       
      30       17       38 1        
      31       18       19 ar       
      32       18       39 1        
      33       19       20 1        
      34       22       23 2        
      35       22       24 2        
      36       22       25 1        
      37       25       29 1        
      38       25       26 1        
      39       26       27 1        
      40       26       40 1        
      41       26       41 1        
      42       27       28 1        
      43       27       42 1        
      44       27       43 1        
      45       28       29 1        
      46       28       44 1        
      47       28       45 1        
      48       29       46 1        
      49       29       47 1        

