#        1GCZ_R01_S0001_C0000_L00006_S0001_C0007_G0010_E0001.mol2
#        Tue Jun  6 09:56:18 2017
#        Descriptor:     32     2    33    10     6    14
#        Energy - RMSD - RMSD MassCentre:     -57.6475    999.9999    999.9999
#        Receptor:       1  Surface Point:     1  Conformer:     0
#        Ligand:         6  Surface Point:     1  Conformer:     7
#        BUDE Formal Charge: 0
#        ATOM Count: 47
#        Heavy ATOM Count: 29
@<TRIPOS>MOLECULE
ZINC61419927_1GCZ_R01_S0001_C0000_L00006_S0001_C0007_G0010_E0001
 47 49 0 0 0
SMALL
USER_CHARGES
@<TRIPOS>ATOM
       1 C1         2.2944    1.2811    4.3628 C.3       1 <0>        -0.1238 
       2 C2         1.6230    0.2143    5.1941 C.2       1 <0>         0.1810 
       3 C3         0.5122    0.3207    5.9361 C.2       1 <0>        -0.7869 
       4 C4         0.3558   -1.0396    6.4973 C.2       1 <0>        -0.0116 
       5 C5         1.3966   -1.7204    5.9984 C.2       1 <0>        -0.0716 
       6 O1         2.2310   -1.0389    5.1931 O.3       1 <0>        -0.1351 
       7 C6         1.6470   -3.1492    6.2922 C.2       1 <0>         0.5609 
       8 O2         0.9017   -3.7515    7.0060 O.2       1 <0>        -0.4736 
       9 O3         2.7172   -3.7711    5.7535 O.3       1 <0>        -0.3174 
      10 C7         2.9181   -5.1520    6.0660 C.3       1 <0>         0.0499 
      11 C8         4.1608   -5.6497    5.3672 C.2       1 <0>         0.5192 
      12 O4         4.1128   -6.6682    4.6792 O.2       1 <0>        -0.4838 
      13 N1         5.3064   -4.9863    5.4959 N.am      1 <0>        -0.6609 
      14 C9         6.4707   -5.4526    4.8411 C.ar      1 <0>         0.1328 
      15 C10        6.4512   -6.5951    4.0322 C.ar      1 <0>        -0.1070 
      16 C11        7.6308   -7.0578    3.4368 C.ar      1 <0>        -0.0227 
      17 C12        8.8305   -6.3651    3.6213 C.ar      1 <0>        -0.0992 
      18 C13        8.8475   -5.1977    4.3939 C.ar      1 <0>        -0.1155 
      19 C14        7.6664   -4.7395    4.9897 C.ar      1 <0>         0.0725 
      20 F1         7.6735   -3.5996    5.7127 F         1 <0>        -0.1311 
      21 Cl1        7.6050   -8.4956    2.4572 Cl        1 <0>        -0.0505 
      22 S1        -0.5874    1.7684    6.2196 S.o2      1 <0>         2.7353 
      23 O5        -1.1399    2.1977    4.9724 O.2       1 <0>        -0.9438 
      24 O6         0.1680    2.8359    6.7979 O.2       1 <0>        -0.9431 
      25 N2        -1.8829    1.3144    7.3048 N.pl3     1 <0>        -1.0117 
      26 C15       -1.7914    1.5715    8.7160 C.3       1 <0>         0.1158 
      27 C16       -2.9662    0.7207    9.2336 C.3       1 <0>        -0.1296 
      28 C17       -3.9864    0.7832    8.0817 C.3       1 <0>        -0.1292 
      29 C18       -3.1051    0.6532    6.8254 C.3       1 <0>         0.1079 
      30 H1         1.7323    2.2091    4.4423 H         1 <0>         0.1035 
      31 H2         2.3257    0.9632    3.3227 H         1 <0>         0.1234 
      32 H3         3.3080    1.4382    4.7255 H         1 <0>         0.1077 
      33 H4        -0.4262   -1.3875    7.1561 H         1 <0>         0.1837 
      34 H5         2.0579   -5.7278    5.7313 H         1 <0>         0.1136 
      35 H6         3.0357   -5.2664    7.1416 H         1 <0>         0.1125 
      36 H7         5.3446   -4.1501    6.0610 H         1 <0>         0.4215 
      37 H8         5.5288   -7.1259    3.8486 H         1 <0>         0.1733 
      38 H9         9.7392   -6.7285    3.1647 H         1 <0>         0.1477 
      39 H10        9.7659   -4.6468    4.5335 H         1 <0>         0.1529 
      40 H11       -0.8343    1.2026    9.0787 H         1 <0>         0.0779 
      41 H12       -1.8927    2.6275    8.9573 H         1 <0>         0.0674 
      42 H13       -3.3981    1.1980   10.1108 H         1 <0>         0.0847 
      43 H14       -2.6726   -0.2935    9.4964 H         1 <0>         0.0771 
      44 H15       -4.6474   -0.0784    8.1488 H         1 <0>         0.0805 
      45 H16       -4.5857    1.6912    8.0880 H         1 <0>         0.0863 
      46 H17       -3.5024    1.2217    5.9872 H         1 <0>         0.0693 
      47 H18       -2.9382   -0.3795    6.5263 H         1 <0>         0.0896 
@<TRIPOS>BOND
       1        1        2 1        
       2        1       30 1        
       3        1       31 1        
       4        1       32 1        
       5        2        6 1        
       6        2        3 2        
       7        3        4 1        
       8        3       22 1        
       9        4        5 2        
      10        4       33 1        
      11        5        6 1        
      12        5        7 1        
      13        7        8 2        
      14        7        9 1        
      15        9       10 1        
      16       10       11 1        
      17       10       34 1        
      18       10       35 1        
      19       11       12 2        
      20       11       13 am       
      21       13       14 1        
      22       13       36 1        
      23       14       19 ar       
      24       14       15 ar       
      25       15       16 ar       
      26       15       37 1        
      27       16       17 ar       
      28       16       21 1        
      29       17       18 ar       
      30       17       38 1        
      31       18       19 ar       
      32       18       39 1        
      33       19       20 1        
      34       22       23 2        
      35       22       24 2        
      36       22       25 1        
      37       25       29 1        
      38       25       26 1        
      39       26       27 1        
      40       26       40 1        
      41       26       41 1        
      42       27       28 1        
      43       27       42 1        
      44       27       43 1        
      45       28       29 1        
      46       28       44 1        
      47       28       45 1        
      48       29       46 1        
      49       29       47 1        

