#        1GCZ_R01_S0001_C0000_L00006_S0001_C0007_G0010_E0001.mol2
#        Tue Jun  6 14:07:36 2017
#        Descriptor:     12    17    16    10     6    14
#        Energy - RMSD - RMSD MassCentre:     -56.9192    999.9999    999.9999
#        Receptor:       1  Surface Point:     1  Conformer:     0
#        Ligand:         6  Surface Point:     1  Conformer:     7
#        BUDE Formal Charge: 0
#        ATOM Count: 47
#        Heavy ATOM Count: 29
@<TRIPOS>MOLECULE
ZINC61419927_1GCZ_R01_S0001_C0000_L00006_S0001_C0007_G0010_E0001
 47 49 0 0 0
SMALL
USER_CHARGES
@<TRIPOS>ATOM
       1 C1         1.4429    0.8040    3.6848 C.3       1 <0>        -0.1238 
       2 C2         1.1602   -0.0623    4.8888 C.2       1 <0>         0.1810 
       3 C3         0.2995    0.1678    5.8897 C.2       1 <0>        -0.7869 
       4 C4         0.4645   -1.0243    6.7507 C.2       1 <0>        -0.0116 
       5 C5         1.3928   -1.7567    6.1201 C.2       1 <0>        -0.0716 
       6 O1         1.8823   -1.2504    4.9742 O.3       1 <0>        -0.1351 
       7 C6         1.8777   -3.0608    6.6249 C.2       1 <0>         0.5609 
       8 O2         1.4382   -3.5081    7.6420 O.2       1 <0>        -0.4736 
       9 O3         2.8161   -3.7441    5.9358 O.3       1 <0>        -0.3174 
      10 C7         3.2536   -4.9995    6.4625 C.3       1 <0>         0.0499 
      11 C8         4.2968   -5.5928    5.5461 C.2       1 <0>         0.5192 
      12 O4         4.1733   -6.7475    5.1404 O.2       1 <0>        -0.4838 
      13 N1         5.3484   -4.8665    5.1780 N.am      1 <0>        -0.6609 
      14 C9         6.3258   -5.4225    4.3192 C.ar      1 <0>         0.1328 
      15 C10        6.2095   -6.7249    3.8193 C.ar      1 <0>        -0.1070 
      16 C11        7.2179   -7.2625    3.0103 C.ar      1 <0>        -0.0227 
      17 C12        8.3334   -6.4918    2.6714 C.ar      1 <0>        -0.0992 
      18 C13        8.4343   -5.1740    3.1330 C.ar      1 <0>        -0.1155 
      19 C14        7.4251   -4.6408    3.9438 C.ar      1 <0>         0.0725 
      20 F1         7.5057   -3.3619    4.3681 F         1 <0>        -0.1311 
      21 Cl1        7.0811   -8.8925    2.4172 Cl        1 <0>        -0.0505 
      22 S1        -0.8334    1.5897    6.1730 S.o2      1 <0>         2.7353 
      23 O5        -1.7609    1.6825    5.0885 O.2       1 <0>        -0.9438 
      24 O6        -0.0726    2.7978    6.2532 O.2       1 <0>        -0.9431 
      25 N2        -1.7090    1.3500    7.6691 N.pl3     1 <0>        -1.0117 
      26 C15       -1.2528    1.9411    8.8971 C.3       1 <0>         0.1158 
      27 C16       -2.1283    1.1864    9.9149 C.3       1 <0>        -0.1296 
      28 C17       -3.4324    0.9250    9.1386 C.3       1 <0>        -0.1292 
      29 C18       -2.9328    0.5384    7.7340 C.3       1 <0>         0.1079 
      30 H1         0.8238    1.6975    3.7284 H         1 <0>         0.1035 
      31 H2         1.2154    0.2483    2.7776 H         1 <0>         0.1234 
      32 H3         2.4928    1.0893    3.6827 H         1 <0>         0.1077 
      33 H4        -0.0545   -1.2397    7.6731 H         1 <0>         0.1837 
      34 H5         2.4056   -5.6772    6.5346 H         1 <0>         0.1136 
      35 H6         3.6823   -4.8478    7.4510 H         1 <0>         0.1125 
      36 H7         5.4487   -3.9185    5.5116 H         1 <0>         0.4215 
      37 H8         5.3398   -7.3257    4.0407 H         1 <0>         0.1733 
      38 H9         9.1116   -6.9121    2.0517 H         1 <0>         0.1477 
      39 H10        9.2854   -4.5645    2.8676 H         1 <0>         0.1529 
      40 H11       -0.1966    1.7137    9.0252 H         1 <0>         0.0779 
      41 H12       -1.4018    3.0185    8.9248 H         1 <0>         0.0674 
      42 H13       -2.3466    1.8395   10.7572 H         1 <0>         0.0847 
      43 H14       -1.6585    0.2790   10.2886 H         1 <0>         0.0771 
      44 H15       -3.9445    0.0753    9.5852 H         1 <0>         0.0805 
      45 H16       -4.1053    1.7799    9.1297 H         1 <0>         0.0863 
      46 H17       -3.6129    0.8711    6.9526 H         1 <0>         0.0693 
      47 H18       -2.7402   -0.5272    7.6279 H         1 <0>         0.0896 
@<TRIPOS>BOND
       1        1        2 1        
       2        1       30 1        
       3        1       31 1        
       4        1       32 1        
       5        2        6 1        
       6        2        3 2        
       7        3        4 1        
       8        3       22 1        
       9        4        5 2        
      10        4       33 1        
      11        5        6 1        
      12        5        7 1        
      13        7        8 2        
      14        7        9 1        
      15        9       10 1        
      16       10       11 1        
      17       10       34 1        
      18       10       35 1        
      19       11       12 2        
      20       11       13 am       
      21       13       14 1        
      22       13       36 1        
      23       14       19 ar       
      24       14       15 ar       
      25       15       16 ar       
      26       15       37 1        
      27       16       17 ar       
      28       16       21 1        
      29       17       18 ar       
      30       17       38 1        
      31       18       19 ar       
      32       18       39 1        
      33       19       20 1        
      34       22       23 2        
      35       22       24 2        
      36       22       25 1        
      37       25       29 1        
      38       25       26 1        
      39       26       27 1        
      40       26       40 1        
      41       26       41 1        
      42       27       28 1        
      43       27       42 1        
      44       27       43 1        
      45       28       29 1        
      46       28       44 1        
      47       28       45 1        
      48       29       46 1        
      49       29       47 1        

