#        1GCZ_R01_S0001_C0000_L00006_S0001_C0008_G0010_E0001.mol2
#        Tue Jun  6 09:56:19 2017
#        Descriptor:     12    18     2    12     4    15
#        Energy - RMSD - RMSD MassCentre:     -52.4183    999.9999    999.9999
#        Receptor:       1  Surface Point:     1  Conformer:     0
#        Ligand:         6  Surface Point:     1  Conformer:     8
#        BUDE Formal Charge: 0
#        ATOM Count: 47
#        Heavy ATOM Count: 29
@<TRIPOS>MOLECULE
ZINC61419927_1GCZ_R01_S0001_C0000_L00006_S0001_C0008_G0010_E0001
 47 49 0 0 0
SMALL
USER_CHARGES
@<TRIPOS>ATOM
       1 C1         5.3290   -7.4718    4.0693 C.3       1 <0>        -0.1238 
       2 C2         4.7927   -6.6977    5.2497 C.2       1 <0>         0.1810 
       3 C3         5.4239   -6.3848    6.3895 C.2       1 <0>        -0.7869 
       4 C4         4.3987   -5.6259    7.1397 C.2       1 <0>        -0.0116 
       5 C5         3.3358   -5.6183    6.3238 C.2       1 <0>        -0.0716 
       6 O1         3.4773   -6.2512    5.1454 O.3       1 <0>        -0.1351 
       7 C6         2.0567   -4.9562    6.6643 C.2       1 <0>         0.5609 
       8 O2         1.1451   -4.9855    5.8921 O.2       1 <0>        -0.4736 
       9 O3         1.9205   -4.3198    7.8469 O.3       1 <0>        -0.3174 
      10 C7         0.6661   -3.6948    8.1317 C.3       1 <0>         0.0499 
      11 C8         0.4132   -2.5952    7.1282 C.2       1 <0>         0.5192 
      12 O4        -0.6506   -2.5584    6.5118 O.2       1 <0>        -0.4838 
      13 N1         1.3410   -1.6674    6.9111 N.am      1 <0>        -0.6609 
      14 C9         1.1041   -0.6370    5.9707 C.ar      1 <0>         0.1328 
      15 C10       -0.1023   -0.5488    5.2659 C.ar      1 <0>        -0.1070 
      16 C11       -0.2871    0.4548    4.3072 C.ar      1 <0>        -0.0227 
      17 C12        0.7202    1.3938    4.0688 C.ar      1 <0>        -0.0992 
      18 C13        1.9119    1.3363    4.8013 C.ar      1 <0>        -0.1155 
      19 C14        2.0939    0.3298    5.7574 C.ar      1 <0>         0.0725 
      20 F1         3.2304    0.2878    6.4847 F         1 <0>        -0.1311 
      21 Cl1       -1.7775    0.5404    3.4135 Cl        1 <0>        -0.0505 
      22 S1         7.1374   -6.7707    6.9378 S.o2      1 <0>         2.7353 
      23 O5         8.0716   -6.1859    6.0266 O.2       1 <0>        -0.9438 
      24 O6         7.3224   -8.1884    6.9644 O.2       1 <0>        -0.9431 
      25 N2         7.3994   -6.1170    8.5398 N.pl3     1 <0>        -1.0117 
      26 C15        7.2327   -6.9348    9.7099 C.3       1 <0>         0.1158 
      27 C16        7.2441   -5.8573   10.8102 C.3       1 <0>        -0.1296 
      28 C17        8.1855   -4.7786   10.2429 C.3       1 <0>        -0.1292 
      29 C18        7.7921   -4.7170    8.7552 C.3       1 <0>         0.1079 
      30 H1         6.3578   -7.7655    4.2664 H         1 <0>         0.1035 
      31 H2         5.2937   -6.8461    3.1800 H         1 <0>         0.1234 
      32 H3         4.7211   -8.3604    3.9128 H         1 <0>         0.1077 
      33 H4         4.5015   -5.1842    8.1200 H         1 <0>         0.1837 
      34 H5         0.6912   -3.2730    9.1342 H         1 <0>         0.1136 
      35 H6        -0.1294   -4.4343    8.0686 H         1 <0>         0.1125 
      36 H7         2.2142   -1.6987    7.4177 H         1 <0>         0.4215 
      37 H8        -0.9066   -1.2431    5.4588 H         1 <0>         0.1733 
      38 H9         0.5758    2.1628    3.3245 H         1 <0>         0.1477 
      39 H10        2.6925    2.0637    4.6348 H         1 <0>         0.1529 
      40 H11        6.2718   -7.4416    9.6502 H         1 <0>         0.0779 
      41 H12        8.0276   -7.6686    9.8254 H         1 <0>         0.0674 
      42 H13        7.6876   -6.2695   11.7141 H         1 <0>         0.0847 
      43 H14        6.2507   -5.4824   11.0477 H         1 <0>         0.0771 
      44 H15        7.9561   -3.8260   10.7159 H         1 <0>         0.0805 
      45 H16        9.2387   -5.0052   10.3948 H         1 <0>         0.0863 
      46 H17        8.6437   -4.4923    8.1165 H         1 <0>         0.0693 
      47 H18        6.9848   -4.0154    8.5560 H         1 <0>         0.0896 
@<TRIPOS>BOND
       1        1        2 1        
       2        1       30 1        
       3        1       31 1        
       4        1       32 1        
       5        2        6 1        
       6        2        3 2        
       7        3        4 1        
       8        3       22 1        
       9        4        5 2        
      10        4       33 1        
      11        5        6 1        
      12        5        7 1        
      13        7        8 2        
      14        7        9 1        
      15        9       10 1        
      16       10       11 1        
      17       10       34 1        
      18       10       35 1        
      19       11       12 2        
      20       11       13 am       
      21       13       14 1        
      22       13       36 1        
      23       14       19 ar       
      24       14       15 ar       
      25       15       16 ar       
      26       15       37 1        
      27       16       17 ar       
      28       16       21 1        
      29       17       18 ar       
      30       17       38 1        
      31       18       19 ar       
      32       18       39 1        
      33       19       20 1        
      34       22       23 2        
      35       22       24 2        
      36       22       25 1        
      37       25       29 1        
      38       25       26 1        
      39       26       27 1        
      40       26       40 1        
      41       26       41 1        
      42       27       28 1        
      43       27       42 1        
      44       27       43 1        
      45       28       29 1        
      46       28       44 1        
      47       28       45 1        
      48       29       46 1        
      49       29       47 1        

