#        1GCZ_R01_S0001_C0000_L00006_S0001_C0008_G0010_E0001.mol2
#        Tue Jun  6 14:07:38 2017
#        Descriptor:     30     2    21    13     5    14
#        Energy - RMSD - RMSD MassCentre:     -52.5035    999.9999    999.9999
#        Receptor:       1  Surface Point:     1  Conformer:     0
#        Ligand:         6  Surface Point:     1  Conformer:     8
#        BUDE Formal Charge: 0
#        ATOM Count: 47
#        Heavy ATOM Count: 29
@<TRIPOS>MOLECULE
ZINC61419927_1GCZ_R01_S0001_C0000_L00006_S0001_C0008_G0010_E0001
 47 49 0 0 0
SMALL
USER_CHARGES
@<TRIPOS>ATOM
       1 C1         6.0404   -6.6913    3.2251 C.3       1 <0>        -0.1238 
       2 C2         5.7399   -5.8130    4.4160 C.2       1 <0>         0.1810 
       3 C3         6.6083   -5.2215    5.2477 C.2       1 <0>        -0.7869 
       4 C4         5.7259   -4.5026    6.1933 C.2       1 <0>        -0.0116 
       5 C5         4.4881   -4.7892    5.7673 C.2       1 <0>        -0.0716 
       6 O1         4.3927   -5.5869    4.6885 O.3       1 <0>        -0.1351 
       7 C6         3.2652   -4.2717    6.4210 C.2       1 <0>         0.5609 
       8 O2         2.1891   -4.5647    5.9917 O.2       1 <0>        -0.4736 
       9 O3         3.3662   -3.4690    7.5016 O.3       1 <0>        -0.3174 
      10 C7         2.1571   -2.9935    8.0993 C.3       1 <0>         0.0499 
      11 C8         1.4127   -2.1303    7.1089 C.2       1 <0>         0.5192 
      12 O4         0.2276   -2.3544    6.8673 O.2       1 <0>        -0.4838 
      13 N1         2.0389   -1.1285    6.4982 N.am      1 <0>        -0.6609 
      14 C9         1.3413   -0.3197    5.5701 C.ar      1 <0>         0.1328 
      15 C10       -0.0132   -0.5295    5.2852 C.ar      1 <0>        -0.1070 
      16 C11       -0.6623    0.2577    4.3264 C.ar      1 <0>        -0.0227 
      17 C12        0.0298    1.2783    3.6687 C.ar      1 <0>        -0.0992 
      18 C13        1.3729    1.5207    3.9808 C.ar      1 <0>        -0.1155 
      19 C14        2.0191    0.7299    4.9385 C.ar      1 <0>         0.0725 
      20 F1         3.3061    0.9785    5.2616 F         1 <0>        -0.1311 
      21 Cl1       -2.3381   -0.0283    3.9555 Cl        1 <0>        -0.0505 
      22 S1         8.4479   -5.2548    5.2573 S.o2      1 <0>         2.7353 
      23 O5         8.9402   -4.7050    4.0324 O.2       1 <0>        -0.9438 
      24 O6         8.9004   -6.6049    5.3887 O.2       1 <0>        -0.9431 
      25 N2         9.0424   -4.3057    6.6020 N.pl3     1 <0>        -1.0117 
      26 C15        9.3897   -4.9268    7.8508 C.3       1 <0>         0.1158 
      27 C16        9.5198   -3.6869    8.7550 C.3       1 <0>        -0.1296 
      28 C17       10.0262   -2.5959    7.7932 C.3       1 <0>        -0.1292 
      29 C18        9.2056   -2.8475    6.5145 C.3       1 <0>         0.1079 
      30 H1         7.1177   -6.7943    3.1139 H         1 <0>         0.1035 
      31 H2         5.6241   -6.2387    2.3275 H         1 <0>         0.1234 
      32 H3         5.5954   -7.6723    3.3773 H         1 <0>         0.1077 
      33 H4         6.0277   -3.8896    7.0298 H         1 <0>         0.1837 
      34 H5         2.3968   -2.4074    8.9839 H         1 <0>         0.1136 
      35 H6         1.5357   -3.8406    8.3821 H         1 <0>         0.1125 
      36 H7         3.0120   -0.9454    6.6973 H         1 <0>         0.4215 
      37 H8        -0.5758   -1.2900    5.8062 H         1 <0>         0.1733 
      38 H9        -0.4731    1.8795    2.9258 H         1 <0>         0.1477 
      39 H10        1.9147    2.3146    3.4883 H         1 <0>         0.1529 
      40 H11        8.5698   -5.5705    8.1628 H         1 <0>         0.0779 
      41 H12       10.3082   -5.5066    7.7897 H         1 <0>         0.0674 
      42 H13       10.2815   -3.8696    9.5101 H         1 <0>         0.0847 
      43 H14        8.5888   -3.4254    9.2537 H         1 <0>         0.0771 
      44 H15        9.7691   -1.6201    8.2000 H         1 <0>         0.0805 
      45 H16       11.1001   -2.6377    7.6239 H         1 <0>         0.0863 
      46 H17        9.7702   -2.6140    5.6143 H         1 <0>         0.0693 
      47 H18        8.2568   -2.3152    6.5047 H         1 <0>         0.0896 
@<TRIPOS>BOND
       1        1        2 1        
       2        1       30 1        
       3        1       31 1        
       4        1       32 1        
       5        2        6 1        
       6        2        3 2        
       7        3        4 1        
       8        3       22 1        
       9        4        5 2        
      10        4       33 1        
      11        5        6 1        
      12        5        7 1        
      13        7        8 2        
      14        7        9 1        
      15        9       10 1        
      16       10       11 1        
      17       10       34 1        
      18       10       35 1        
      19       11       12 2        
      20       11       13 am       
      21       13       14 1        
      22       13       36 1        
      23       14       19 ar       
      24       14       15 ar       
      25       15       16 ar       
      26       15       37 1        
      27       16       17 ar       
      28       16       21 1        
      29       17       18 ar       
      30       17       38 1        
      31       18       19 ar       
      32       18       39 1        
      33       19       20 1        
      34       22       23 2        
      35       22       24 2        
      36       22       25 1        
      37       25       29 1        
      38       25       26 1        
      39       26       27 1        
      40       26       40 1        
      41       26       41 1        
      42       27       28 1        
      43       27       42 1        
      44       27       43 1        
      45       28       29 1        
      46       28       44 1        
      47       28       45 1        
      48       29       46 1        
      49       29       47 1        

