#        1GCZ_R01_S0001_C0000_L00006_S0001_C0009_G0010_E0001.mol2
#        Tue Jun  6 09:56:20 2017
#        Descriptor:     10    32     8    11     6    14
#        Energy - RMSD - RMSD MassCentre:     -52.3997    999.9999    999.9999
#        Receptor:       1  Surface Point:     1  Conformer:     0
#        Ligand:         6  Surface Point:     1  Conformer:     9
#        BUDE Formal Charge: 0
#        ATOM Count: 47
#        Heavy ATOM Count: 29
@<TRIPOS>MOLECULE
ZINC61419927_1GCZ_R01_S0001_C0000_L00006_S0001_C0009_G0010_E0001
 47 49 0 0 0
SMALL
USER_CHARGES
@<TRIPOS>ATOM
       1 C1         5.8956   -2.8562    3.9387 C.3       1 <0>        -0.1238 
       2 C2         4.6204   -2.7587    4.7414 C.2       1 <0>         0.1810 
       3 C3         4.2301   -3.5234    5.7704 C.2       1 <0>        -0.7869 
       4 C4         2.9180   -2.9447    6.1357 C.2       1 <0>        -0.0116 
       5 C5         2.7501   -1.9405    5.2644 C.2       1 <0>        -0.0716 
       6 O1         3.7355   -1.7494    4.3692 O.3       1 <0>        -0.1351 
       7 C6         1.5579   -1.0634    5.2578 C.2       1 <0>         0.5609 
       8 O2         1.4680   -0.1841    4.4536 O.2       1 <0>        -0.4736 
       9 O3         0.5728   -1.2573    6.1602 O.3       1 <0>        -0.3174 
      10 C7        -0.5594   -0.3849    6.1151 C.3       1 <0>         0.0499 
      11 C8        -0.1156    1.0296    6.4018 C.2       1 <0>         0.5192 
      12 O4        -0.4281    1.9392    5.6351 O.2       1 <0>        -0.4838 
      13 N1         0.6130    1.2911    7.4834 N.am      1 <0>        -0.6609 
      14 C9         1.0289    2.6166    7.7522 C.ar      1 <0>         0.1328 
      15 C10        0.6749    3.6816    6.9154 C.ar      1 <0>        -0.1070 
      16 C11        1.1426    4.9739    7.1827 C.ar      1 <0>        -0.0227 
      17 C12        1.9412    5.2151    8.3039 C.ar      1 <0>        -0.0992 
      18 C13        2.2626    4.1616    9.1682 C.ar      1 <0>        -0.1155 
      19 C14        1.7952    2.8702    8.8961 C.ar      1 <0>         0.0725 
      20 F1         2.0803    1.8573    9.7418 F         1 <0>        -0.1311 
      21 Cl1        0.7235    6.2878    6.1216 Cl        1 <0>        -0.0505 
      22 S1         5.0748   -4.9466    6.5743 S.o2      1 <0>         2.7353 
      23 O5         4.4984   -5.1759    7.8628 O.2       1 <0>        -0.9438 
      24 O6         6.4670   -4.6549    6.7209 O.2       1 <0>        -0.9431 
      25 N2         4.8783   -6.3771    5.5857 N.pl3     1 <0>        -1.0117 
      26 C15        5.7727   -6.6521    4.4948 C.3       1 <0>         0.1158 
      27 C16        5.3979   -8.1135    4.1854 C.3       1 <0>        -0.1296 
      28 C17        3.8993   -8.1787    4.5340 C.3       1 <0>        -0.1292 
      29 C18        3.8044   -7.3508    5.8292 C.3       1 <0>         0.1079 
      30 H1         6.5014   -3.6756    4.3198 H         1 <0>         0.1035 
      31 H2         6.4497   -1.9239    4.0251 H         1 <0>         0.1234 
      32 H3         5.6527   -3.0392    2.8941 H         1 <0>         0.1077 
      33 H4         2.2598   -3.2692    6.9280 H         1 <0>         0.1837 
      34 H5        -1.2863   -0.6963    6.8623 H         1 <0>         0.1136 
      35 H6        -1.0122   -0.4304    5.1268 H         1 <0>         0.1125 
      36 H7         0.8691    0.5435    8.1123 H         1 <0>         0.4215 
      37 H8         0.0309    3.5238    6.0629 H         1 <0>         0.1733 
      38 H9         2.3044    6.2123    8.5035 H         1 <0>         0.1477 
      39 H10        2.8687    4.3377   10.0445 H         1 <0>         0.1529 
      40 H11        5.5310   -5.9888    3.6668 H         1 <0>         0.0779 
      41 H12        6.8186   -6.5304    4.7688 H         1 <0>         0.0674 
      42 H13        5.9429   -8.7752    4.8556 H         1 <0>         0.0847 
      43 H14        5.6158   -8.3994    3.1584 H         1 <0>         0.0771 
      44 H15        3.3325   -7.6842    3.7480 H         1 <0>         0.0805 
      45 H16        3.5300   -9.1954    4.6516 H         1 <0>         0.0863 
      46 H17        4.0598   -7.9379    6.7088 H         1 <0>         0.0693 
      47 H18        2.8318   -6.8831    5.9663 H         1 <0>         0.0896 
@<TRIPOS>BOND
       1        1        2 1        
       2        1       30 1        
       3        1       31 1        
       4        1       32 1        
       5        2        6 1        
       6        2        3 2        
       7        3        4 1        
       8        3       22 1        
       9        4        5 2        
      10        4       33 1        
      11        5        6 1        
      12        5        7 1        
      13        7        8 2        
      14        7        9 1        
      15        9       10 1        
      16       10       11 1        
      17       10       34 1        
      18       10       35 1        
      19       11       12 2        
      20       11       13 am       
      21       13       14 1        
      22       13       36 1        
      23       14       19 ar       
      24       14       15 ar       
      25       15       16 ar       
      26       15       37 1        
      27       16       17 ar       
      28       16       21 1        
      29       17       18 ar       
      30       17       38 1        
      31       18       19 ar       
      32       18       39 1        
      33       19       20 1        
      34       22       23 2        
      35       22       24 2        
      36       22       25 1        
      37       25       29 1        
      38       25       26 1        
      39       26       27 1        
      40       26       40 1        
      41       26       41 1        
      42       27       28 1        
      43       27       42 1        
      44       27       43 1        
      45       28       29 1        
      46       28       44 1        
      47       28       45 1        
      48       29       46 1        
      49       29       47 1        

