#        1GCZ_R01_S0001_C0000_L00006_S0001_C0009_G0010_E0001.mol2
#        Tue Jun  6 14:07:40 2017
#        Descriptor:     22    35    21    13     5    13
#        Energy - RMSD - RMSD MassCentre:     -54.3225    999.9999    999.9999
#        Receptor:       1  Surface Point:     1  Conformer:     0
#        Ligand:         6  Surface Point:     1  Conformer:     9
#        BUDE Formal Charge: 0
#        ATOM Count: 47
#        Heavy ATOM Count: 29
@<TRIPOS>MOLECULE
ZINC61419927_1GCZ_R01_S0001_C0000_L00006_S0001_C0009_G0010_E0001
 47 49 0 0 0
SMALL
USER_CHARGES
@<TRIPOS>ATOM
       1 C1         5.8765   -6.0240    3.1416 C.3       1 <0>        -0.1238 
       2 C2         5.7233   -4.8433    4.0703 C.2       1 <0>         0.1810 
       3 C3         6.6348   -3.9112    4.3806 C.2       1 <0>        -0.7869 
       4 C4         5.9032   -3.0298    5.3175 C.2       1 <0>        -0.0116 
       5 C5         4.6874   -3.5861    5.4072 C.2       1 <0>        -0.0716 
       6 O1         4.4810   -4.7013    4.6841 O.3       1 <0>        -0.1351 
       7 C6         3.6011   -3.0304    6.2450 C.2       1 <0>         0.5609 
       8 O2         2.5379   -3.5745    6.2820 O.2       1 <0>        -0.4736 
       9 O3         3.8122   -1.9093    6.9667 O.3       1 <0>        -0.3174 
      10 C7         2.7330   -1.4099    7.7610 C.3       1 <0>         0.0499 
      11 C8         1.5859   -1.0181    6.8607 C.2       1 <0>         0.5192 
      12 O4         0.4552   -1.4484    7.0833 O.2       1 <0>        -0.4838 
      13 N1         1.7986   -0.2079    5.8277 N.am      1 <0>        -0.6609 
      14 C9         0.7237    0.1593    4.9840 C.ar      1 <0>         0.1328 
      15 C10       -0.5808   -0.2922    5.2174 C.ar      1 <0>        -0.1070 
      16 C11       -1.6136    0.0502    4.3364 C.ar      1 <0>        -0.0227 
      17 C12       -1.3555    0.8701    3.2345 C.ar      1 <0>        -0.0992 
      18 C13       -0.0615    1.3598    3.0203 C.ar      1 <0>        -0.1155 
      19 C14        0.9692    1.0131    3.9021 C.ar      1 <0>         0.0725 
      20 F1         2.2121    1.5055    3.7141 F         1 <0>        -0.1311 
      21 Cl1       -3.2269   -0.5391    4.6158 Cl        1 <0>        -0.0505 
      22 S1         8.3739   -3.7208    3.8109 S.o2      1 <0>         2.7353 
      23 O5         8.8143   -2.3843    4.0654 O.2       1 <0>        -0.9438 
      24 O6         8.4489   -3.9876    2.4081 O.2       1 <0>        -0.9431 
      25 N2         9.3983   -4.8459    4.6753 N.pl3     1 <0>        -1.0117 
      26 C15        9.5545   -6.2019    4.2251 C.3       1 <0>         0.1158 
      27 C16       10.7546   -6.6463    5.0818 C.3       1 <0>        -0.1296 
      28 C17       10.5799   -5.8431    6.3840 C.3       1 <0>        -0.1292 
      29 C18       10.1391   -4.4550    5.8833 C.3       1 <0>         0.1079 
      30 H1         6.8818   -6.0294    2.7257 H         1 <0>         0.1035 
      31 H2         5.1501   -5.9468    2.3353 H         1 <0>         0.1234 
      32 H3         5.7077   -6.9449    3.6959 H         1 <0>         0.1077 
      33 H4         6.2787   -2.1433    5.8069 H         1 <0>         0.1837 
      34 H5         3.0686   -0.5399    8.3216 H         1 <0>         0.1136 
      35 H6         2.4046   -2.1829    8.4526 H         1 <0>         0.1125 
      36 H7         2.7274    0.1448    5.6458 H         1 <0>         0.4215 
      37 H8        -0.8091   -0.8985    6.0815 H         1 <0>         0.1733 
      38 H9        -2.1539    1.1273    2.5543 H         1 <0>         0.1477 
      39 H10        0.1478    2.0042    2.1792 H         1 <0>         0.1529 
      40 H11        8.6533   -6.7596    4.4714 H         1 <0>         0.0779 
      41 H12        9.7469   -6.2695    3.1563 H         1 <0>         0.0674 
      42 H13       11.6781   -6.3339    4.5985 H         1 <0>         0.0847 
      43 H14       10.7889   -7.7224    5.2388 H         1 <0>         0.0771 
      44 H15        9.7763   -6.2876    6.9675 H         1 <0>         0.0805 
      45 H16       11.4820   -5.8089    6.9914 H         1 <0>         0.0863 
      46 H17       10.9861   -3.8394    5.5882 H         1 <0>         0.0693 
      47 H18        9.5238   -3.9178    6.6020 H         1 <0>         0.0896 
@<TRIPOS>BOND
       1        1        2 1        
       2        1       30 1        
       3        1       31 1        
       4        1       32 1        
       5        2        6 1        
       6        2        3 2        
       7        3        4 1        
       8        3       22 1        
       9        4        5 2        
      10        4       33 1        
      11        5        6 1        
      12        5        7 1        
      13        7        8 2        
      14        7        9 1        
      15        9       10 1        
      16       10       11 1        
      17       10       34 1        
      18       10       35 1        
      19       11       12 2        
      20       11       13 am       
      21       13       14 1        
      22       13       36 1        
      23       14       19 ar       
      24       14       15 ar       
      25       15       16 ar       
      26       15       37 1        
      27       16       17 ar       
      28       16       21 1        
      29       17       18 ar       
      30       17       38 1        
      31       18       19 ar       
      32       18       39 1        
      33       19       20 1        
      34       22       23 2        
      35       22       24 2        
      36       22       25 1        
      37       25       29 1        
      38       25       26 1        
      39       26       27 1        
      40       26       40 1        
      41       26       41 1        
      42       27       28 1        
      43       27       42 1        
      44       27       43 1        
      45       28       29 1        
      46       28       44 1        
      47       28       45 1        
      48       29       46 1        
      49       29       47 1        

