#        1GCZ_R01_S0001_C0000_L00003_S0001_C0001_G0010_E0001.mol2
#        Tue Jun  6 09:54:36 2017
#        Descriptor:     26     9    22    11     5    14
#        Energy - RMSD - RMSD MassCentre:     -56.2723    999.9999    999.9999
#        Receptor:       1  Surface Point:     1  Conformer:     0
#        Ligand:         3  Surface Point:     1  Conformer:     1
#        BUDE Formal Charge: 0
#        ATOM Count: 58
#        Heavy ATOM Count: 30
@<TRIPOS>MOLECULE
ZINC61580633_1GCZ_R01_S0001_C0000_L00003_S0001_C0001_G0010_E0001
 58 59 0 0 0
SMALL
USER_CHARGES
@<TRIPOS>ATOM
       1 C1        -2.0965   -0.6493    6.2003 C.3       1 <0>        -0.1532 
       2 C2        -1.5576   -1.8387    6.9899 C.3       1 <0>        -0.1224 
       3 C3        -2.0502   -3.1373    6.3526 C.3       1 <0>        -0.1198 
       4 C4        -1.5105   -4.3283    7.1432 C.3       1 <0>         0.0610 
       5 O1        -0.0825   -4.3408    7.0694 O.3       1 <0>        -0.3878 
       6 C5         0.4809   -5.4375    7.7936 C.3       1 <0>         0.0487 
       7 C6         2.0037   -5.3955    7.6767 C.3       1 <0>         0.1244 
       8 N1         2.4004   -5.7773    6.3138 N.am      1 <0>        -0.7216 
       9 C7         2.2900   -7.0427    5.9194 C.2       1 <0>         0.5161 
      10 O2         1.8564   -7.8936    6.6943 O.2       1 <0>        -0.5151 
      11 C8         2.6975   -7.4349    4.5193 C.3       1 <0>         0.0490 
      12 O3         4.1192   -7.3449    4.3947 O.3       1 <0>        -0.3194 
      13 C9         4.6926   -6.1320    4.5450 C.2       1 <0>         0.5417 
      14 O4         4.0013   -5.1545    4.7797 O.2       1 <0>        -0.5337 
      15 C10        6.1605   -5.9880    4.4251 C.2       1 <0>        -0.2559 
      16 C11        7.0914   -7.1068    4.1566 C.2       1 <0>        -0.0791 
      17 C12        8.3649   -6.7089    4.1102 C.2       1 <0>        -0.2585 
      18 S1         8.5466   -4.9689    4.3775 S.3       1 <0>         0.3028 
      19 C13        6.7932   -4.8148    4.5628 C.2       1 <0>         0.0893 
      20 N2         6.1216   -3.6504    4.8275 N.am      1 <0>        -0.6099 
      21 C14        6.7925   -2.5093    4.9561 C.2       1 <0>         0.5551 
      22 O5         8.0167   -2.4992    4.8372 O.2       1 <0>        -0.4939 
      23 C15        6.0655   -1.2523    5.2420 C.ar      1 <0>        -0.1466 
      24 C16        6.8115   -0.0747    5.3726 C.ar      1 <0>        -0.0772 
      25 C17        6.1890    1.1314    5.7153 C.ar      1 <0>        -0.1241 
      26 C18        4.8090    1.1804    5.9440 C.ar      1 <0>        -0.0446 
      27 C19        4.0530    0.0161    5.7622 C.ar      1 <0>        -0.1261 
      28 C20        4.6753   -1.1817    5.3909 C.ar      1 <0>        -0.0460 
      29 C21        4.1659    2.4775    6.3733 C.3       1 <0>        -0.0928 
      30 C22        4.1602    2.5615    7.8969 C.3       1 <0>        -0.1485 
      31 H1        -3.1842   -0.6625    6.2232 H         1 <0>         0.0567 
      32 H2        -1.7540   -0.7138    5.1697 H         1 <0>         0.0554 
      33 H3        -1.7348    0.2749    6.6461 H         1 <0>         0.0557 
      34 H4        -0.4698   -1.8197    6.9783 H         1 <0>         0.0632 
      35 H5        -1.9109   -1.7830    8.0174 H         1 <0>         0.0635 
      36 H6        -3.1377   -3.1579    6.3643 H         1 <0>         0.0711 
      37 H7        -1.6966   -3.1946    5.3252 H         1 <0>         0.0704 
      38 H8        -1.8186   -4.2436    8.1833 H         1 <0>         0.0498 
      39 H9        -1.9029   -5.2516    6.7221 H         1 <0>         0.0505 
      40 H10        0.1118   -6.3738    7.3803 H         1 <0>         0.0584 
      41 H11        0.1960   -5.3657    8.8413 H         1 <0>         0.0702 
      42 H12        2.4421   -6.0907    8.3895 H         1 <0>         0.0872 
      43 H13        2.3565   -4.3882    7.8877 H         1 <0>         0.0805 
      44 H14        2.7567   -5.0793    5.6766 H         1 <0>         0.4058 
      45 H15        2.3808   -8.4568    4.3215 H         1 <0>         0.1008 
      46 H16        2.2281   -6.7639    3.8030 H         1 <0>         0.0999 
      47 H17        6.7548   -8.1218    4.0061 H         1 <0>         0.1557 
      48 H18        9.1831   -7.3866    3.9159 H         1 <0>         0.1929 
      49 H19        5.1165   -3.6586    4.9251 H         1 <0>         0.4317 
      50 H20        7.8793   -0.0954    5.2122 H         1 <0>         0.1287 
      51 H21        6.7739    2.0347    5.8071 H         1 <0>         0.1326 
      52 H22        2.9837    0.0562    5.9084 H         1 <0>         0.1342 
      53 H23        4.0348   -2.0318    5.2077 H         1 <0>         0.1410 
      54 H24        3.1434    2.5144    6.0035 H         1 <0>         0.0777 
      55 H25        4.7301    3.3136    5.9654 H         1 <0>         0.0771 
      56 H26        5.1838    2.5371    8.2647 H         1 <0>         0.0623 
      57 H27        3.6077    1.7172    8.3040 H         1 <0>         0.0572 
      58 H28        3.6849    3.4899    8.2064 H         1 <0>         0.0578 
@<TRIPOS>BOND
       1        1        2 1        
       2        1       31 1        
       3        1       32 1        
       4        1       33 1        
       5        2        3 1        
       6        2       34 1        
       7        2       35 1        
       8        3        4 1        
       9        3       36 1        
      10        3       37 1        
      11        4        5 1        
      12        4       38 1        
      13        4       39 1        
      14        5        6 1        
      15        6        7 1        
      16        6       40 1        
      17        6       41 1        
      18        7        8 1        
      19        7       42 1        
      20        7       43 1        
      21        8        9 am       
      22        8       44 1        
      23        9       10 2        
      24        9       11 1        
      25       11       12 1        
      26       11       45 1        
      27       11       46 1        
      28       12       13 1        
      29       13       14 2        
      30       13       15 1        
      31       15       19 2        
      32       15       16 1        
      33       16       17 2        
      34       16       47 1        
      35       17       18 1        
      36       17       48 1        
      37       18       19 1        
      38       19       20 1        
      39       20       21 am       
      40       20       49 1        
      41       21       22 2        
      42       21       23 1        
      43       23       28 ar       
      44       23       24 ar       
      45       24       25 ar       
      46       24       50 1        
      47       25       26 ar       
      48       25       51 1        
      49       26       27 ar       
      50       26       29 1        
      51       27       28 ar       
      52       27       52 1        
      53       28       53 1        
      54       29       30 1        
      55       29       54 1        
      56       29       55 1        
      57       30       56 1        
      58       30       57 1        
      59       30       58 1        

