#        1GCZ_R01_S0001_C0000_L00006_S0001_C0010_G0010_E0001.mol2
#        Tue Jun  6 09:56:21 2017
#        Descriptor:     21    14    27    13     4    13
#        Energy - RMSD - RMSD MassCentre:     -56.3203    999.9999    999.9999
#        Receptor:       1  Surface Point:     1  Conformer:     0
#        Ligand:         6  Surface Point:     1  Conformer:    10
#        BUDE Formal Charge: 0
#        ATOM Count: 47
#        Heavy ATOM Count: 29
@<TRIPOS>MOLECULE
ZINC61419927_1GCZ_R01_S0001_C0000_L00006_S0001_C0010_G0010_E0001
 47 49 0 0 0
SMALL
USER_CHARGES
@<TRIPOS>ATOM
       1 C1         3.1185   -6.8421    5.6132 C.3       1 <0>        -0.1238 
       2 C2         4.2989   -6.0734    5.0693 C.2       1 <0>         0.1810 
       3 C3         5.4387   -6.5596    4.5594 C.2       1 <0>        -0.7869 
       4 C4         6.1889   -5.3366    4.1968 C.2       1 <0>        -0.0116 
       5 C5         5.3730   -4.3352    4.5532 C.2       1 <0>        -0.0716 
       6 O1         4.1946   -4.6847    5.0996 O.3       1 <0>        -0.1351 
       7 C6         5.7135   -2.9068    4.3686 C.2       1 <0>         0.5609 
       8 O2         6.7603   -2.6008    3.8804 O.2       1 <0>        -0.4736 
       9 O3         4.8411   -1.9505    4.7518 O.3       1 <0>        -0.3174 
      10 C7         3.6016   -2.3664    5.3309 C.3       1 <0>         0.0499 
      11 C8         2.7797   -1.1504    5.6859 C.2       1 <0>         0.5192 
      12 O4         1.6155   -1.0612    5.2991 O.2       1 <0>        -0.4838 
      13 N1         3.3151   -0.1766    6.4166 N.am      1 <0>        -0.6609 
      14 C9         2.5451    0.9628    6.7492 C.ar      1 <0>         0.1328 
      15 C10        1.2105    1.0909    6.3461 C.ar      1 <0>        -0.1070 
      16 C11        0.4903    2.2524    6.6505 C.ar      1 <0>        -0.0227 
      17 C12        1.0895    3.2793    7.3850 C.ar      1 <0>        -0.0992 
      18 C13        2.4101    3.1383    7.8277 C.ar      1 <0>        -0.1155 
      19 C14        3.1278    1.9765    7.5193 C.ar      1 <0>         0.0725 
      20 F1         4.3920    1.8254    7.9678 F         1 <0>        -0.1311 
      21 Cl1       -1.1587    2.4176    6.1203 Cl        1 <0>        -0.0505 
      22 S1         5.9870   -8.3017    4.3360 S.o2      1 <0>         2.7353 
      23 O5         5.0758   -8.9795    3.4669 O.2       1 <0>        -0.9438 
      24 O6         6.0136   -8.9604    5.6049 O.2       1 <0>        -0.9431 
      25 N2         7.5890   -8.3243    3.6321 N.pl3     1 <0>        -1.0117 
      26 C15        8.7617   -8.2158    4.4559 C.3       1 <0>         0.1158 
      27 C16        9.8535   -8.6119    3.4446 C.3       1 <0>        -0.1296 
      28 C17        9.2977   -8.1022    2.1019 C.3       1 <0>        -0.1292 
      29 C18        7.8018   -8.4589    2.1838 C.3       1 <0>         0.1079 
      30 H1         3.3156   -7.9093    5.5374 H         1 <0>         0.1035 
      31 H2         2.2292   -6.5950    5.0373 H         1 <0>         0.1234 
      32 H3         2.9621   -6.5749    6.6562 H         1 <0>         0.1077 
      33 H4         7.1692   -5.2821    3.7466 H         1 <0>         0.1837 
      34 H5         3.7986   -2.9468    6.2298 H         1 <0>         0.1136 
      35 H6         3.0553   -2.9781    4.6161 H         1 <0>         0.1125 
      36 H7         4.2712   -0.2510    6.7337 H         1 <0>         0.4215 
      37 H8         0.7176    0.2953    5.8073 H         1 <0>         0.1733 
      38 H9         0.5322    4.1759    7.6128 H         1 <0>         0.1477 
      39 H10        2.8799    3.9196    8.4067 H         1 <0>         0.1529 
      40 H11        8.8677   -7.1830    4.7815 H         1 <0>         0.0779 
      41 H12        8.7273   -8.8719    5.3231 H         1 <0>         0.0674 
      42 H13        9.9304   -9.6965    3.4031 H         1 <0>         0.0847 
      43 H14       10.8304   -8.2014    3.6919 H         1 <0>         0.0771 
      44 H15        9.4085   -7.0206    2.0621 H         1 <0>         0.0805 
      45 H16        9.7925   -8.5414    1.2382 H         1 <0>         0.0863 
      46 H17        7.6119   -9.4915    1.8987 H         1 <0>         0.0693 
      47 H18        7.1714   -7.7918    1.5995 H         1 <0>         0.0896 
@<TRIPOS>BOND
       1        1        2 1        
       2        1       30 1        
       3        1       31 1        
       4        1       32 1        
       5        2        6 1        
       6        2        3 2        
       7        3        4 1        
       8        3       22 1        
       9        4        5 2        
      10        4       33 1        
      11        5        6 1        
      12        5        7 1        
      13        7        8 2        
      14        7        9 1        
      15        9       10 1        
      16       10       11 1        
      17       10       34 1        
      18       10       35 1        
      19       11       12 2        
      20       11       13 am       
      21       13       14 1        
      22       13       36 1        
      23       14       19 ar       
      24       14       15 ar       
      25       15       16 ar       
      26       15       37 1        
      27       16       17 ar       
      28       16       21 1        
      29       17       18 ar       
      30       17       38 1        
      31       18       19 ar       
      32       18       39 1        
      33       19       20 1        
      34       22       23 2        
      35       22       24 2        
      36       22       25 1        
      37       25       29 1        
      38       25       26 1        
      39       26       27 1        
      40       26       40 1        
      41       26       41 1        
      42       27       28 1        
      43       27       42 1        
      44       27       43 1        
      45       28       29 1        
      46       28       44 1        
      47       28       45 1        
      48       29       46 1        
      49       29       47 1        

