#        1GCZ_R01_S0001_C0000_L00006_S0001_C0010_G0010_E0001.mol2
#        Tue Jun  6 14:07:42 2017
#        Descriptor:     28    36     5    15     9    14
#        Energy - RMSD - RMSD MassCentre:     -60.1701    999.9999    999.9999
#        Receptor:       1  Surface Point:     1  Conformer:     0
#        Ligand:         6  Surface Point:     1  Conformer:    10
#        BUDE Formal Charge: 0
#        ATOM Count: 47
#        Heavy ATOM Count: 29
@<TRIPOS>MOLECULE
ZINC61419927_1GCZ_R01_S0001_C0000_L00006_S0001_C0010_G0010_E0001
 47 49 0 0 0
SMALL
USER_CHARGES
@<TRIPOS>ATOM
       1 C1         4.6936    0.6077    3.4465 C.3       1 <0>        -0.1238 
       2 C2         5.1938    0.5003    4.8672 C.2       1 <0>         0.1810 
       3 C3         4.5013    0.1674    5.9650 C.2       1 <0>        -0.7869 
       4 C4         5.5229    0.2288    7.0338 C.2       1 <0>        -0.0116 
       5 C5         6.6439    0.5887    6.3938 C.2       1 <0>        -0.0716 
       6 O1         6.5433    0.7821    5.0665 O.3       1 <0>        -0.1351 
       7 C6         7.9445    0.7709    7.0762 C.2       1 <0>         0.5609 
       8 O2         8.0300    0.5955    8.2551 O.2       1 <0>        -0.4736 
       9 O3         9.0335    1.1350    6.3663 O.3       1 <0>        -0.3174 
      10 C7         8.8809    1.3330    4.9584 C.3       1 <0>         0.0499 
      11 C8        10.2086    1.7328    4.3604 C.2       1 <0>         0.5192 
      12 O4        10.6523    1.1251    3.3873 O.2       1 <0>        -0.4838 
      13 N1        10.8974    2.7418    4.8862 N.am      1 <0>        -0.6609 
      14 C9        12.1414    3.1164    4.3259 C.ar      1 <0>         0.1328 
      15 C10       12.6691    2.4634    3.2056 C.ar      1 <0>        -0.1070 
      16 C11       13.9251    2.8265    2.7044 C.ar      1 <0>        -0.0227 
      17 C12       14.6474    3.8636    3.3008 C.ar      1 <0>        -0.0992 
      18 C13       14.1055    4.5488    4.3947 C.ar      1 <0>        -0.1155 
      19 C14       12.8504    4.1813    4.8946 C.ar      1 <0>         0.0725 
      20 F1        12.3129    4.8577    5.9318 F         1 <0>        -0.1311 
      21 Cl1       14.5882    1.9904    1.3301 Cl        1 <0>        -0.0505 
      22 S1         2.7246   -0.2714    6.1558 S.o2      1 <0>         2.7353 
      23 O5         2.4361   -1.4364    5.3782 O.2       1 <0>        -0.9438 
      24 O6         1.9130    0.8156    5.7035 O.2       1 <0>        -0.9431 
      25 N2         2.3806   -0.5960    7.8406 N.pl3     1 <0>        -1.0117 
      26 C15        2.0631    0.4702    8.7506 C.3       1 <0>         0.1158 
      27 C16        1.5385   -0.3343    9.9544 C.3       1 <0>        -0.1296 
      28 C17        2.3566   -1.6377    9.8959 C.3       1 <0>        -0.1292 
      29 C18        2.3966   -1.9592    8.3904 C.3       1 <0>         0.1079 
      30 H1         3.6332    0.3667    3.4169 H         1 <0>         0.1035 
      31 H2         5.2423   -0.0888    2.8160 H         1 <0>         0.1234 
      32 H3         4.8457    1.6225    3.0850 H         1 <0>         0.1077 
      33 H4         5.3804    0.0252    8.0849 H         1 <0>         0.1837 
      34 H5         8.1506    2.1196    4.7804 H         1 <0>         0.1136 
      35 H6         8.5386    0.4087    4.4978 H         1 <0>         0.1125 
      36 H7        10.5320    3.2401    5.6851 H         1 <0>         0.4215 
      37 H8        12.1129    1.6825    2.7086 H         1 <0>         0.1733 
      38 H9        15.6182    4.1368    2.9145 H         1 <0>         0.1477 
      39 H10       14.6486    5.3603    4.8563 H         1 <0>         0.1529 
      40 H11        2.9767    1.0096    8.9919 H         1 <0>         0.0779 
      41 H12        1.3255    1.1607    8.3468 H         1 <0>         0.0674 
      42 H13        0.4882   -0.5724    9.7991 H         1 <0>         0.0847 
      43 H14        1.6404    0.1982   10.8978 H         1 <0>         0.0771 
      44 H15        3.3661   -1.4366   10.2484 H         1 <0>         0.0805 
      45 H16        1.9269   -2.4411   10.4907 H         1 <0>         0.0863 
      46 H17        1.4995   -2.4783    8.0596 H         1 <0>         0.0693 
      47 H18        3.2796   -2.5234    8.0978 H         1 <0>         0.0896 
@<TRIPOS>BOND
       1        1        2 1        
       2        1       30 1        
       3        1       31 1        
       4        1       32 1        
       5        2        6 1        
       6        2        3 2        
       7        3        4 1        
       8        3       22 1        
       9        4        5 2        
      10        4       33 1        
      11        5        6 1        
      12        5        7 1        
      13        7        8 2        
      14        7        9 1        
      15        9       10 1        
      16       10       11 1        
      17       10       34 1        
      18       10       35 1        
      19       11       12 2        
      20       11       13 am       
      21       13       14 1        
      22       13       36 1        
      23       14       19 ar       
      24       14       15 ar       
      25       15       16 ar       
      26       15       37 1        
      27       16       17 ar       
      28       16       21 1        
      29       17       18 ar       
      30       17       38 1        
      31       18       19 ar       
      32       18       39 1        
      33       19       20 1        
      34       22       23 2        
      35       22       24 2        
      36       22       25 1        
      37       25       29 1        
      38       25       26 1        
      39       26       27 1        
      40       26       40 1        
      41       26       41 1        
      42       27       28 1        
      43       27       42 1        
      44       27       43 1        
      45       28       29 1        
      46       28       44 1        
      47       28       45 1        
      48       29       46 1        
      49       29       47 1        

