#        1GCZ_R01_S0001_C0000_L00006_S0001_C0011_G0010_E0001.mol2
#        Tue Jun  6 09:56:21 2017
#        Descriptor:      4     2     7    12     3    14
#        Energy - RMSD - RMSD MassCentre:     -57.8444    999.9999    999.9999
#        Receptor:       1  Surface Point:     1  Conformer:     0
#        Ligand:         6  Surface Point:     1  Conformer:    11
#        BUDE Formal Charge: 0
#        ATOM Count: 47
#        Heavy ATOM Count: 29
@<TRIPOS>MOLECULE
ZINC61419927_1GCZ_R01_S0001_C0000_L00006_S0001_C0011_G0010_E0001
 47 49 0 0 0
SMALL
USER_CHARGES
@<TRIPOS>ATOM
       1 C1         1.7560   -6.9104    7.8241 C.3       1 <0>        -0.1238 
       2 C2         2.9055   -6.6885    6.8705 C.2       1 <0>         0.1810 
       3 C3         3.7547   -7.5977    6.3727 C.2       1 <0>        -0.7869 
       4 C4         4.6394   -6.7872    5.5066 C.2       1 <0>        -0.0116 
       5 C5         4.1701   -5.5389    5.6374 C.2       1 <0>        -0.0716 
       6 O1         3.1133   -5.3758    6.4534 O.3       1 <0>        -0.1351 
       7 C6         4.7548   -4.3748    4.9349 C.2       1 <0>         0.5609 
       8 O2         5.6919   -4.5245    4.2088 O.2       1 <0>        -0.4736 
       9 O3         4.2290   -3.1445    5.1149 O.3       1 <0>        -0.3174 
      10 C7         3.1081   -3.0161    5.9935 C.3       1 <0>         0.0499 
      11 C8         2.6791   -1.5695    6.0525 C.2       1 <0>         0.5192 
      12 O4         1.5031   -1.2686    5.8535 O.2       1 <0>        -0.4838 
      13 N1         3.5730   -0.6216    6.3197 N.am      1 <0>        -0.6609 
      14 C9         3.1710    0.7338    6.3749 C.ar      1 <0>         0.1328 
      15 C10        1.8384    1.1137    6.1757 C.ar      1 <0>        -0.1070 
      16 C11        1.4815    2.4675    6.1893 C.ar      1 <0>        -0.0227 
      17 C12        2.4480    3.4473    6.4319 C.ar      1 <0>        -0.0992 
      18 C13        3.7743    3.0706    6.6746 C.ar      1 <0>        -0.1155 
      19 C14        4.1278    1.7160    6.6577 C.ar      1 <0>         0.0725 
      20 F1         5.4001    1.3475    6.9183 F         1 <0>        -0.1311 
      21 Cl1       -0.1715    2.9344    5.9110 Cl        1 <0>        -0.0505 
      22 S1         3.8437   -9.4136    6.6556 S.o2      1 <0>         2.7353 
      23 O5         2.6245  -10.0229    6.2228 O.2       1 <0>        -0.9438 
      24 O6         4.0358   -9.6710    8.0490 O.2       1 <0>        -0.9431 
      25 N2         5.1826  -10.0814    5.7480 N.pl3     1 <0>        -1.0117 
      26 C15        6.4635  -10.2924    6.3647 C.3       1 <0>         0.1158 
      27 C16        7.3338  -10.5573    5.1220 C.3       1 <0>        -0.1296 
      28 C17        6.3613  -11.2448    4.1457 C.3       1 <0>        -0.1292 
      29 C18        5.0571  -10.4466    4.3297 C.3       1 <0>         0.1079 
      30 H1         1.6941   -7.9667    8.0768 H         1 <0>         0.1035 
      31 H2         0.8280   -6.5946    7.3521 H         1 <0>         0.1234 
      32 H3         1.9194   -6.3294    8.7294 H         1 <0>         0.1077 
      33 H4         5.4686   -7.1385    4.9103 H         1 <0>         0.1837 
      34 H5         3.3881   -3.3529    6.9893 H         1 <0>         0.1136 
      35 H6         2.2857   -3.6241    5.6223 H         1 <0>         0.1125 
      36 H7         4.5383   -0.8699    6.4829 H         1 <0>         0.4215 
      37 H8         1.0697    0.3712    6.0205 H         1 <0>         0.1733 
      38 H9         2.1695    4.4908    6.4360 H         1 <0>         0.1477 
      39 H10        4.5278    3.8178    6.8756 H         1 <0>         0.1529 
      40 H11        6.7600   -9.3807    6.8791 H         1 <0>         0.0779 
      41 H12        6.4595  -11.1242    7.0659 H         1 <0>         0.0674 
      42 H13        8.1259  -11.2574    5.3790 H         1 <0>         0.0847 
      43 H14        7.7841   -9.6528    4.7183 H         1 <0>         0.0771 
      44 H15        6.7265  -11.1091    3.1299 H         1 <0>         0.0805 
      45 H16        6.2392  -12.3084    4.3394 H         1 <0>         0.0863 
      46 H17        4.1750  -11.0717    4.2080 H         1 <0>         0.0693 
      47 H18        4.9906   -9.5810    3.6739 H         1 <0>         0.0896 
@<TRIPOS>BOND
       1        1        2 1        
       2        1       30 1        
       3        1       31 1        
       4        1       32 1        
       5        2        6 1        
       6        2        3 2        
       7        3        4 1        
       8        3       22 1        
       9        4        5 2        
      10        4       33 1        
      11        5        6 1        
      12        5        7 1        
      13        7        8 2        
      14        7        9 1        
      15        9       10 1        
      16       10       11 1        
      17       10       34 1        
      18       10       35 1        
      19       11       12 2        
      20       11       13 am       
      21       13       14 1        
      22       13       36 1        
      23       14       19 ar       
      24       14       15 ar       
      25       15       16 ar       
      26       15       37 1        
      27       16       17 ar       
      28       16       21 1        
      29       17       18 ar       
      30       17       38 1        
      31       18       19 ar       
      32       18       39 1        
      33       19       20 1        
      34       22       23 2        
      35       22       24 2        
      36       22       25 1        
      37       25       29 1        
      38       25       26 1        
      39       26       27 1        
      40       26       40 1        
      41       26       41 1        
      42       27       28 1        
      43       27       42 1        
      44       27       43 1        
      45       28       29 1        
      46       28       44 1        
      47       28       45 1        
      48       29       46 1        
      49       29       47 1        

