#        1GCZ_R01_S0001_C0000_L00006_S0001_C0011_G0010_E0001.mol2
#        Tue Jun  6 14:07:44 2017
#        Descriptor:      4     3     7    13     3    13
#        Energy - RMSD - RMSD MassCentre:     -59.1361    999.9999    999.9999
#        Receptor:       1  Surface Point:     1  Conformer:     0
#        Ligand:         6  Surface Point:     1  Conformer:    11
#        BUDE Formal Charge: 0
#        ATOM Count: 47
#        Heavy ATOM Count: 29
@<TRIPOS>MOLECULE
ZINC61419927_1GCZ_R01_S0001_C0000_L00006_S0001_C0011_G0010_E0001
 47 49 0 0 0
SMALL
USER_CHARGES
@<TRIPOS>ATOM
       1 C1         2.6610   -7.1714    6.3514 C.3       1 <0>        -0.1238 
       2 C2         3.8640   -6.8025    5.5167 C.2       1 <0>         0.1810 
       3 C3         4.7457   -7.6225    4.9286 C.2       1 <0>        -0.7869 
       4 C4         5.6763   -6.6858    4.2604 C.2       1 <0>        -0.0116 
       5 C5         5.1939   -5.4733    4.5651 C.2       1 <0>        -0.0716 
       6 O1         4.0898   -5.4404    5.3326 O.3       1 <0>        -0.1351 
       7 C6         5.8137   -4.2130    4.0979 C.2       1 <0>         0.5609 
       8 O2         6.7930   -4.2469    3.4141 O.2       1 <0>        -0.4736 
       9 O3         5.2721   -3.0261    4.4447 O.3       1 <0>        -0.3174 
      10 C7         4.1004   -3.0373    5.2643 C.3       1 <0>         0.0499 
      11 C8         3.6615   -1.6177    5.5330 C.2       1 <0>         0.5192 
      12 O4         2.4980   -1.2826    5.3163 O.2       1 <0>        -0.4838 
      13 N1         4.5334   -0.7304    6.0039 N.am      1 <0>        -0.6609 
      14 C9         4.1222    0.5998    6.2556 C.ar      1 <0>         0.1328 
      15 C10        2.8019    1.0136    6.0422 C.ar      1 <0>        -0.1070 
      16 C11        2.4382    2.3487    6.2554 C.ar      1 <0>        -0.0227 
      17 C12        3.3839    3.2711    6.7116 C.ar      1 <0>        -0.0992 
      18 C13        4.6953    2.8534    6.9678 C.ar      1 <0>        -0.1155 
      19 C14        5.0557    1.5180    6.7512 C.ar      1 <0>         0.0725 
      20 F1         6.3120    1.1056    7.0232 F         1 <0>        -0.1311 
      21 Cl1        0.8025    2.8628    5.9593 Cl        1 <0>        -0.0505 
      22 S1         4.8266   -9.4606    4.9162 S.o2      1 <0>         2.7353 
      23 O5         3.6382   -9.9851    4.3181 O.2       1 <0>        -0.9438 
      24 O6         4.9368   -9.9429    6.2578 O.2       1 <0>        -0.9431 
      25 N2         6.2203   -9.9779    3.9929 N.pl3     1 <0>        -1.0117 
      26 C15        7.4633  -10.2929    4.6419 C.3       1 <0>         0.1158 
      27 C16        8.4072  -10.3557    3.4265 C.3       1 <0>        -0.1296 
      28 C17        7.4977  -10.8700    2.2952 C.3       1 <0>        -0.1292 
      29 C18        6.1811  -10.1061    2.5291 C.3       1 <0>         0.1079 
      30 H1         2.5893   -8.2546    6.4242 H         1 <0>         0.1035 
      31 H2         1.7611   -6.7784    5.8830 H         1 <0>         0.1234 
      32 H3         2.7675   -6.7468    7.3474 H         1 <0>         0.1077 
      33 H4         6.5412   -6.9391    3.6652 H         1 <0>         0.1837 
      34 H5         4.3224   -3.5335    6.2067 H         1 <0>         0.1136 
      35 H6         3.3045   -3.5725    4.7507 H         1 <0>         0.1125 
      36 H7         5.4885   -1.0068    6.1815 H         1 <0>         0.4215 
      37 H8         2.0475    0.3101    5.7226 H         1 <0>         0.1733 
      38 H9         3.1005    4.3012    6.8694 H         1 <0>         0.1477 
      39 H10        5.4318    3.5540    7.3325 H         1 <0>         0.1529 
      40 H11        7.7243   -9.4788    5.3148 H         1 <0>         0.0779 
      41 H12        7.4217  -11.2280    5.1965 H         1 <0>         0.0674 
      42 H13        9.1860  -11.0923    3.6124 H         1 <0>         0.0847 
      43 H14        8.8762   -9.3997    3.2033 H         1 <0>         0.0771 
      44 H15        7.9219  -10.5721    1.3386 H         1 <0>         0.0805 
      45 H16        7.3696  -11.9504    2.3051 H         1 <0>         0.0863 
      46 H17        5.3108  -10.6987    2.2549 H         1 <0>         0.0693 
      47 H18        6.1493   -9.1448    2.0206 H         1 <0>         0.0896 
@<TRIPOS>BOND
       1        1        2 1        
       2        1       30 1        
       3        1       31 1        
       4        1       32 1        
       5        2        6 1        
       6        2        3 2        
       7        3        4 1        
       8        3       22 1        
       9        4        5 2        
      10        4       33 1        
      11        5        6 1        
      12        5        7 1        
      13        7        8 2        
      14        7        9 1        
      15        9       10 1        
      16       10       11 1        
      17       10       34 1        
      18       10       35 1        
      19       11       12 2        
      20       11       13 am       
      21       13       14 1        
      22       13       36 1        
      23       14       19 ar       
      24       14       15 ar       
      25       15       16 ar       
      26       15       37 1        
      27       16       17 ar       
      28       16       21 1        
      29       17       18 ar       
      30       17       38 1        
      31       18       19 ar       
      32       18       39 1        
      33       19       20 1        
      34       22       23 2        
      35       22       24 2        
      36       22       25 1        
      37       25       29 1        
      38       25       26 1        
      39       26       27 1        
      40       26       40 1        
      41       26       41 1        
      42       27       28 1        
      43       27       42 1        
      44       27       43 1        
      45       28       29 1        
      46       28       44 1        
      47       28       45 1        
      48       29       46 1        
      49       29       47 1        

