#        1GCZ_R01_S0001_C0000_L00006_S0001_C0012_G0010_E0001.mol2
#        Tue Jun  6 09:56:22 2017
#        Descriptor:     35    22    19    14    10    13
#        Energy - RMSD - RMSD MassCentre:     -64.3207    999.9999    999.9999
#        Receptor:       1  Surface Point:     1  Conformer:     0
#        Ligand:         6  Surface Point:     1  Conformer:    12
#        BUDE Formal Charge: 0
#        ATOM Count: 47
#        Heavy ATOM Count: 29
@<TRIPOS>MOLECULE
ZINC61419927_1GCZ_R01_S0001_C0000_L00006_S0001_C0012_G0010_E0001
 47 49 0 0 0
SMALL
USER_CHARGES
@<TRIPOS>ATOM
       1 C1         4.1494    0.5499    3.2600 C.3       1 <0>        -0.1238 
       2 C2         4.5721    0.5567    4.7095 C.2       1 <0>         0.1810 
       3 C3         3.8324    0.2650    5.7882 C.2       1 <0>        -0.7869 
       4 C4         4.7884    0.4404    6.9042 C.2       1 <0>        -0.0116 
       5 C5         5.9283    0.8075    6.3029 C.2       1 <0>        -0.0716 
       6 O1         5.8955    0.9102    4.9622 O.3       1 <0>        -0.1351 
       7 C6         7.1796    1.0909    7.0409 C.2       1 <0>         0.5609 
       8 O2         7.2051    0.9959    8.2318 O.2       1 <0>        -0.4736 
       9 O3         8.2915    1.4564    6.3681 O.3       1 <0>        -0.3174 
      10 C7         8.2112    1.5561    4.9438 C.3       1 <0>         0.0499 
      11 C8         9.5533    1.9751    4.3931 C.2       1 <0>         0.5192 
      12 O4        10.0759    1.3261    3.4882 O.2       1 <0>        -0.4838 
      13 N1        10.1695    3.0453    4.8866 N.am      1 <0>        -0.6609 
      14 C9        11.4271    3.4378    4.3705 C.ar      1 <0>         0.1328 
      15 C10       12.0437    2.7380    3.3265 C.ar      1 <0>        -0.1070 
      16 C11       13.3103    3.1232    2.8707 C.ar      1 <0>        -0.0227 
      17 C12       13.9547    4.2278    3.4345 C.ar      1 <0>        -0.0992 
      18 C13       13.3241    4.9573    4.4494 C.ar      1 <0>        -0.1155 
      19 C14       12.0586    4.5675    4.9042 C.ar      1 <0>         0.0725 
      20 F1        11.4360    5.2849    5.8633 F         1 <0>        -0.1311 
      21 Cl1       14.0838    2.2306    1.5932 Cl        1 <0>        -0.0505 
      22 S1         2.0672   -0.2390    5.9117 S.o2      1 <0>         2.7353 
      23 O5         1.8318   -0.8391    7.1882 O.2       1 <0>        -0.9438 
      24 O6         1.7665   -1.1822    4.8798 O.2       1 <0>        -0.9431 
      25 N2         1.0437    1.1691    5.7327 N.pl3     1 <0>        -1.0117 
      26 C15        0.6632    1.6478    4.4320 C.3       1 <0>         0.1158 
      27 C16       -0.4515    2.6400    4.8125 C.3       1 <0>        -0.1296 
      28 C17       -0.0017    3.1721    6.1858 C.3       1 <0>        -0.1292 
      29 C18        0.5306    1.9118    6.8929 C.3       1 <0>         0.1079 
      30 H1         3.1030    0.2607    3.1894 H         1 <0>         0.1035 
      31 H2         4.7609   -0.1608    2.7081 H         1 <0>         0.1234 
      32 H3         4.2804    1.5451    2.8401 H         1 <0>         0.1077 
      33 H4         4.5949    0.2988    7.9572 H         1 <0>         0.1837 
      34 H5         7.4608    2.2965    4.6745 H         1 <0>         0.1136 
      35 H6         7.9334    0.5898    4.5283 H         1 <0>         0.1125 
      36 H7         9.7393    3.5775    5.6295 H         1 <0>         0.4215 
      37 H8        11.5488    1.9027    2.8536 H         1 <0>         0.1733 
      38 H9        14.9340    4.5181    3.0839 H         1 <0>         0.1477 
      39 H10       13.8067    5.8201    4.8842 H         1 <0>         0.1529 
      40 H11        1.5154    2.1510    3.9800 H         1 <0>         0.0779 
      41 H12        0.3176    0.8513    3.7764 H         1 <0>         0.0674 
      42 H13       -1.3883    2.1003    4.9354 H         1 <0>         0.0847 
      43 H14       -0.5940    3.4233    4.0709 H         1 <0>         0.0771 
      44 H15        0.8151    3.8761    6.0410 H         1 <0>         0.0805 
      45 H16       -0.7999    3.6639    6.7379 H         1 <0>         0.0863 
      46 H17       -0.2681    1.3326    7.3513 H         1 <0>         0.0693 
      47 H18        1.3002    2.1292    7.6305 H         1 <0>         0.0896 
@<TRIPOS>BOND
       1        1        2 1        
       2        1       30 1        
       3        1       31 1        
       4        1       32 1        
       5        2        6 1        
       6        2        3 2        
       7        3        4 1        
       8        3       22 1        
       9        4        5 2        
      10        4       33 1        
      11        5        6 1        
      12        5        7 1        
      13        7        8 2        
      14        7        9 1        
      15        9       10 1        
      16       10       11 1        
      17       10       34 1        
      18       10       35 1        
      19       11       12 2        
      20       11       13 am       
      21       13       14 1        
      22       13       36 1        
      23       14       19 ar       
      24       14       15 ar       
      25       15       16 ar       
      26       15       37 1        
      27       16       17 ar       
      28       16       21 1        
      29       17       18 ar       
      30       17       38 1        
      31       18       19 ar       
      32       18       39 1        
      33       19       20 1        
      34       22       23 2        
      35       22       24 2        
      36       22       25 1        
      37       25       29 1        
      38       25       26 1        
      39       26       27 1        
      40       26       40 1        
      41       26       41 1        
      42       27       28 1        
      43       27       42 1        
      44       27       43 1        
      45       28       29 1        
      46       28       44 1        
      47       28       45 1        
      48       29       46 1        
      49       29       47 1        

