#        1GCZ_R01_S0001_C0000_L00006_S0001_C0012_G0010_E0001.mol2
#        Tue Jun  6 14:07:46 2017
#        Descriptor:     10    17    31    12     3    14
#        Energy - RMSD - RMSD MassCentre:     -60.3022    999.9999    999.9999
#        Receptor:       1  Surface Point:     1  Conformer:     0
#        Ligand:         6  Surface Point:     1  Conformer:    12
#        BUDE Formal Charge: 0
#        ATOM Count: 47
#        Heavy ATOM Count: 29
@<TRIPOS>MOLECULE
ZINC61419927_1GCZ_R01_S0001_C0000_L00006_S0001_C0012_G0010_E0001
 47 49 0 0 0
SMALL
USER_CHARGES
@<TRIPOS>ATOM
       1 C1         2.0743   -7.1917    5.7922 C.3       1 <0>        -0.1238 
       2 C2         3.3771   -6.7642    5.1598 C.2       1 <0>         0.1810 
       3 C3         4.3574   -7.5412    4.6791 C.2       1 <0>        -0.7869 
       4 C4         5.3513   -6.5590    4.1917 C.2       1 <0>        -0.0116 
       5 C5         4.7972   -5.3701    4.4663 C.2       1 <0>        -0.0716 
       6 O1         3.5915   -5.3913    5.0620 O.3       1 <0>        -0.1351 
       7 C6         5.4456   -4.0793    4.1437 C.2       1 <0>         0.5609 
       8 O2         6.5157   -4.0650    3.6121 O.2       1 <0>        -0.4736 
       9 O3         4.8276   -2.9189    4.4501 O.3       1 <0>        -0.3174 
      10 C7         3.5483   -2.9877    5.0856 C.3       1 <0>         0.0499 
      11 C8         3.0373   -1.5896    5.3388 C.2       1 <0>         0.5192 
      12 O4         1.9100   -1.2701    4.9643 O.2       1 <0>        -0.4838 
      13 N1         3.8063   -0.7045    5.9666 N.am      1 <0>        -0.6609 
      14 C9         3.3274    0.6056    6.2039 C.ar      1 <0>         0.1328 
      15 C10        2.0425    1.0004    5.8124 C.ar      1 <0>        -0.1070 
      16 C11        1.6161    2.3179    6.0187 C.ar      1 <0>        -0.0227 
      17 C12        2.4593    3.2403    6.6443 C.ar      1 <0>        -0.0992 
      18 C13        3.7291    2.8396    7.0767 C.ar      1 <0>        -0.1155 
      19 C14        4.1529    1.5218    6.8664 C.ar      1 <0>         0.0725 
      20 F1         5.3657    1.1249    7.3065 F         1 <0>        -0.1311 
      21 Cl1        0.0290    2.8097    5.5024 Cl        1 <0>        -0.0505 
      22 S1         4.4879   -9.3752    4.6103 S.o2      1 <0>         2.7353 
      23 O5         5.4877   -9.7456    3.6573 O.2       1 <0>        -0.9438 
      24 O6         3.2290   -9.9291    4.2189 O.2       1 <0>        -0.9431 
      25 N2         4.9313   -9.9890    6.1879 N.pl3     1 <0>        -1.0117 
      26 C15        3.9336  -10.2447    7.1905 C.3       1 <0>         0.1158 
      27 C16        4.7599  -11.0500    8.2105 C.3       1 <0>        -0.1296 
      28 C17        6.1744  -10.4574    8.0708 C.3       1 <0>        -0.1292 
      29 C18        6.3278  -10.2711    6.5498 C.3       1 <0>         0.1079 
      30 H1         2.0214   -8.2781    5.8131 H         1 <0>         0.1035 
      31 H2         1.2434   -6.7986    5.2102 H         1 <0>         0.1234 
      32 H3         2.0213   -6.8058    6.8081 H         1 <0>         0.1077 
      33 H4         6.3008   -6.7699    3.7224 H         1 <0>         0.1837 
      34 H5         3.6420   -3.5172    6.0314 H         1 <0>         0.1136 
      35 H6         2.8515   -3.5180    4.4399 H         1 <0>         0.1125 
      36 H7         4.7316   -0.9680    6.2738 H         1 <0>         0.4215 
      37 H8         1.3624    0.2950    5.3583 H         1 <0>         0.1733 
      38 H9         2.1286    4.2570    6.7965 H         1 <0>         0.1477 
      39 H10        4.3849    3.5399    7.5725 H         1 <0>         0.1529 
      40 H11        3.5979   -9.2951    7.6019 H         1 <0>         0.0779 
      41 H12        3.0811  -10.7981    6.8024 H         1 <0>         0.0674 
      42 H13        4.7863  -12.0951    7.9086 H         1 <0>         0.0847 
      43 H14        4.3632  -10.9882    9.2217 H         1 <0>         0.0771 
      44 H15        6.1989   -9.4846    8.5573 H         1 <0>         0.0805 
      45 H16        6.9487  -11.0889    8.5016 H         1 <0>         0.0863 
      46 H17        6.6368  -11.1893    6.0549 H         1 <0>         0.0693 
      47 H18        7.0054   -9.4621    6.2852 H         1 <0>         0.0896 
@<TRIPOS>BOND
       1        1        2 1        
       2        1       30 1        
       3        1       31 1        
       4        1       32 1        
       5        2        6 1        
       6        2        3 2        
       7        3        4 1        
       8        3       22 1        
       9        4        5 2        
      10        4       33 1        
      11        5        6 1        
      12        5        7 1        
      13        7        8 2        
      14        7        9 1        
      15        9       10 1        
      16       10       11 1        
      17       10       34 1        
      18       10       35 1        
      19       11       12 2        
      20       11       13 am       
      21       13       14 1        
      22       13       36 1        
      23       14       19 ar       
      24       14       15 ar       
      25       15       16 ar       
      26       15       37 1        
      27       16       17 ar       
      28       16       21 1        
      29       17       18 ar       
      30       17       38 1        
      31       18       19 ar       
      32       18       39 1        
      33       19       20 1        
      34       22       23 2        
      35       22       24 2        
      36       22       25 1        
      37       25       29 1        
      38       25       26 1        
      39       26       27 1        
      40       26       40 1        
      41       26       41 1        
      42       27       28 1        
      43       27       42 1        
      44       27       43 1        
      45       28       29 1        
      46       28       44 1        
      47       28       45 1        
      48       29       46 1        
      49       29       47 1        

