#        1GCZ_R01_S0001_C0000_L00007_S0001_C0000_G0010_E0001.mol2
#        Tue Jun  6 09:56:23 2017
#        Descriptor:     22    10    15    15     8    14
#        Energy - RMSD - RMSD MassCentre:     -65.6668    999.9999    999.9999
#        Receptor:       1  Surface Point:     1  Conformer:     0
#        Ligand:         7  Surface Point:     1  Conformer:     0
#        BUDE Formal Charge: 0
#        ATOM Count: 51
#        Heavy ATOM Count: 28
@<TRIPOS>MOLECULE
ZINC61408927_1GCZ_R01_S0001_C0000_L00007_S0001_C0000_G0010_E0001
 51 52 0 0 0
SMALL
USER_CHARGES
@<TRIPOS>ATOM
       1 C1        11.0706    3.7158    4.4679 C.3       1 <0>        -0.1139 
       2 C2        11.4907    2.3603    4.9751 C.ar      1 <0>        -0.1278 
       3 C3        12.7714    1.9087    4.7502 C.ar      1 <0>        -0.0331 
       4 C4        13.1600    0.6511    5.2210 C.ar      1 <0>        -0.1443 
       5 C5        12.2455   -0.1437    5.9193 C.ar      1 <0>        -0.0449 
       6 C6        10.9668    0.3143    6.1404 C.ar      1 <0>        -0.1321 
       7 C7        10.5851    1.5692    5.6751 C.ar      1 <0>         0.2027 
       8 N1         9.2908    2.0325    5.9063 N.am      1 <0>        -0.6834 
       9 C8         8.2559    1.1691    5.9055 C.2       1 <0>         0.7034 
      10 O1         8.4592   -0.0236    5.7855 O.2       1 <0>        -0.5648 
      11 N2         6.9954    1.6278    6.0376 N.am      1 <0>        -0.7401 
      12 C9         5.8705    0.6894    6.0367 C.3       1 <0>         0.1407 
      13 C10        4.5607    1.4632    6.2002 C.3       1 <0>        -0.0859 
      14 C11        3.4035    0.4977    6.1993 C.ar      1 <0>        -0.1215 
      15 C12        2.7906    0.1563    5.0078 C.ar      1 <0>        -0.0699 
      16 C13        1.7293   -0.7281    5.0044 C.ar      1 <0>        -0.1435 
      17 C14        1.2789   -1.2740    6.1975 C.ar      1 <0>         0.1289 
      18 C15        1.8960   -0.9301    7.3915 C.ar      1 <0>        -0.2084 
      19 C16        2.9601   -0.0493    7.3892 C.ar      1 <0>        -0.0704 
      20 O2         0.2348   -2.1439    6.1967 O.3       1 <0>        -0.2897 
      21 C17       -0.1752   -2.6664    7.4620 C.3       1 <0>         0.0392 
      22 C18       -1.3367   -3.6060    7.2649 C.2       1 <0>         0.5189 
      23 O3        -1.7708   -3.8083    6.1506 O.2       1 <0>        -0.5164 
      24 N3        -1.8933   -4.2217    8.3269 N.am      1 <0>        -0.8500 
      25 C19       14.5309    0.1637    4.9817 C.2       1 <0>         0.5100 
      26 O4        15.3242    0.8553    4.3745 O.2       1 <0>        -0.5069 
      27 O5        14.9039   -1.0488    5.4363 O.3       1 <0>        -0.3499 
      28 C20       16.2468   -1.4572    5.1685 C.3       1 <0>         0.0344 
      29 H1        11.2791    4.4688    5.2280 H         1 <0>         0.0741 
      30 H2        11.6261    3.9522    3.5603 H         1 <0>         0.0756 
      31 H3        10.0029    3.7070    4.2487 H         1 <0>         0.0654 
      32 H4        13.4750    2.5250    4.2103 H         1 <0>         0.1419 
      33 H5        12.5423   -1.1159    6.2842 H         1 <0>         0.1420 
      34 H6        10.2599   -0.2991    6.6792 H         1 <0>         0.1513 
      35 H7         9.1350    2.9761    6.0679 H         1 <0>         0.4099 
      36 H8         6.8332    2.5793    6.1334 H         1 <0>         0.3991 
      37 H9         5.8542    0.1426    5.0939 H         1 <0>         0.0724 
      38 H10        5.9829   -0.0133    6.8623 H         1 <0>         0.0717 
      39 H11        4.5770    2.0099    7.1431 H         1 <0>         0.0798 
      40 H12        4.4483    2.1659    5.3746 H         1 <0>         0.0807 
      41 H13        3.1416    0.5816    4.0793 H         1 <0>         0.1319 
      42 H14        1.2504   -0.9939    4.0736 H         1 <0>         0.1348 
      43 H15        1.5471   -1.3538    8.3218 H         1 <0>         0.1287 
      44 H16        3.4436    0.2153    8.3179 H         1 <0>         0.1269 
      45 H17        0.6549   -3.2056    7.9186 H         1 <0>         0.0958 
      46 H18       -0.4777   -1.8463    8.1131 H         1 <0>         0.0955 
      47 H19       -1.5462   -4.0600    9.2181 H         1 <0>         0.4037 
      48 H20       -2.6410   -4.8265    8.2000 H         1 <0>         0.4105 
      49 H21       16.4099   -1.4853    4.0911 H         1 <0>         0.0617 
      50 H22       16.9395   -0.7484    5.6224 H         1 <0>         0.0616 
      51 H23       16.4154   -2.4491    5.5876 H         1 <0>         0.1040 
@<TRIPOS>BOND
       1        1        2 1        
       2        1       29 1        
       3        1       30 1        
       4        1       31 1        
       5        2        7 ar       
       6        2        3 ar       
       7        3        4 ar       
       8        3       32 1        
       9        4        5 ar       
      10        4       25 1        
      11        5        6 ar       
      12        5       33 1        
      13        6        7 ar       
      14        6       34 1        
      15        7        8 1        
      16        8        9 am       
      17        8       35 1        
      18        9       10 2        
      19        9       11 am       
      20       11       12 1        
      21       11       36 1        
      22       12       13 1        
      23       12       37 1        
      24       12       38 1        
      25       13       14 1        
      26       13       39 1        
      27       13       40 1        
      28       14       19 ar       
      29       14       15 ar       
      30       15       16 ar       
      31       15       41 1        
      32       16       17 ar       
      33       16       42 1        
      34       17       18 ar       
      35       17       20 1        
      36       18       19 ar       
      37       18       43 1        
      38       19       44 1        
      39       20       21 1        
      40       21       22 1        
      41       21       45 1        
      42       21       46 1        
      43       22       23 2        
      44       22       24 am       
      45       24       47 1        
      46       24       48 1        
      47       25       26 2        
      48       25       27 1        
      49       27       28 1        
      50       28       49 1        
      51       28       50 1        
      52       28       51 1        

