#        1GCZ_R01_S0001_C0000_L00007_S0001_C0000_G0010_E0001.mol2
#        Tue Jun  6 14:07:48 2017
#        Descriptor:      6     6    31    15     8    14
#        Energy - RMSD - RMSD MassCentre:     -67.1514    999.9999    999.9999
#        Receptor:       1  Surface Point:     1  Conformer:     0
#        Ligand:         7  Surface Point:     1  Conformer:     0
#        BUDE Formal Charge: 0
#        ATOM Count: 51
#        Heavy ATOM Count: 28
@<TRIPOS>MOLECULE
ZINC61408927_1GCZ_R01_S0001_C0000_L00007_S0001_C0000_G0010_E0001
 51 52 0 0 0
SMALL
USER_CHARGES
@<TRIPOS>ATOM
       1 C1        10.8875    4.0621    4.9459 C.3       1 <0>        -0.1139 
       2 C2        11.3320    2.6222    4.9298 C.ar      1 <0>        -0.1278 
       3 C3        12.5301    2.2790    4.3453 C.ar      1 <0>        -0.0331 
       4 C4        12.9414    0.9431    4.3307 C.ar      1 <0>        -0.1443 
       5 C5        12.1336   -0.0402    4.9106 C.ar      1 <0>        -0.0449 
       6 C6        10.9371    0.3102    5.4931 C.ar      1 <0>        -0.1321 
       7 C7        10.5334    1.6420    5.5107 C.ar      1 <0>         0.2027 
       8 N1         9.3236    1.9941    6.1072 N.am      1 <0>        -0.6834 
       9 C8         8.2685    1.1587    6.0351 C.2       1 <0>         0.7034 
      10 O1         8.3942    0.0634    5.5224 O.2       1 <0>        -0.5648 
      11 N2         7.0740    1.5374    6.5313 N.am      1 <0>        -0.7401 
      12 C9         5.9271    0.6293    6.4529 C.3       1 <0>         0.1407 
      13 C10        4.7035    1.2975    7.0835 C.3       1 <0>        -0.0859 
      14 C11        3.5237    0.3632    7.0029 C.ar      1 <0>        -0.1215 
      15 C12        2.6917    0.3959    5.8991 C.ar      1 <0>        -0.0699 
      16 C13        1.6093   -0.4591    5.8231 C.ar      1 <0>        -0.1435 
      17 C14        1.3577   -1.3512    6.8552 C.ar      1 <0>         0.1289 
      18 C15        2.1943   -1.3823    7.9615 C.ar      1 <0>        -0.2084 
      19 C16        3.2784   -0.5288    8.0304 C.ar      1 <0>        -0.0704 
      20 O2         0.2932   -2.1930    6.7830 O.3       1 <0>        -0.2897 
      21 C17        0.0953   -3.0844    7.8822 C.3       1 <0>         0.0392 
      22 C18       -1.1229   -3.9339    7.6269 C.2       1 <0>         0.5189 
      23 O3        -1.7592   -3.7901    6.6044 O.2       1 <0>        -0.5164 
      24 N3        -1.5056   -4.8535    8.5349 N.am      1 <0>        -0.8500 
      25 C19       14.2239    0.5715    3.7052 C.2       1 <0>         0.5100 
      26 O4        14.9246    1.4270    3.2015 O.2       1 <0>        -0.5069 
      27 O5        14.6190   -0.7167    3.6921 O.3       1 <0>        -0.3499 
      28 C20       15.8723   -1.0047    3.0692 C.3       1 <0>         0.0344 
      29 H1        11.2625    4.5480    5.8467 H         1 <0>         0.0741 
      30 H2        11.2802    4.5734    4.0670 H         1 <0>         0.0756 
      31 H3         9.7985    4.1064    4.9359 H         1 <0>         0.0654 
      32 H4        13.1514    3.0409    3.8981 H         1 <0>         0.1419 
      33 H5        12.4482   -1.0733    4.9008 H         1 <0>         0.1420 
      34 H6        10.3126   -0.4486    5.9407 H         1 <0>         0.1513 
      35 H7         9.2412    2.8404    6.5740 H         1 <0>         0.4099 
      36 H8         6.9737    2.4112    6.9403 H         1 <0>         0.3991 
      37 H9         5.7171    0.3983    5.4086 H         1 <0>         0.0724 
      38 H10        6.1553   -0.2914    6.9899 H         1 <0>         0.0717 
      39 H11        4.9135    1.5284    8.1279 H         1 <0>         0.0798 
      40 H12        4.4753    2.2182    6.5466 H         1 <0>         0.0807 
      41 H13        2.8881    1.0906    5.0958 H         1 <0>         0.1319 
      42 H14        0.9593   -0.4328    4.9610 H         1 <0>         0.1348 
      43 H15        2.0005   -2.0759    8.7663 H         1 <0>         0.1287 
      44 H16        3.9325   -0.5557    8.8894 H         1 <0>         0.1269 
      45 H17        0.9695   -3.7264    7.9912 H         1 <0>         0.0958 
      46 H18       -0.0485   -2.5082    8.7961 H         1 <0>         0.0955 
      47 H19       -0.9968   -4.9686    9.3527 H         1 <0>         0.4037 
      48 H20       -2.2898   -5.4003    8.3707 H         1 <0>         0.4105 
      49 H21       15.8373   -0.6984    2.0237 H         1 <0>         0.0617 
      50 H22       16.6660   -0.4602    3.5809 H         1 <0>         0.0616 
      51 H23       16.0699   -2.0750    3.1278 H         1 <0>         0.1040 
@<TRIPOS>BOND
       1        1        2 1        
       2        1       29 1        
       3        1       30 1        
       4        1       31 1        
       5        2        7 ar       
       6        2        3 ar       
       7        3        4 ar       
       8        3       32 1        
       9        4        5 ar       
      10        4       25 1        
      11        5        6 ar       
      12        5       33 1        
      13        6        7 ar       
      14        6       34 1        
      15        7        8 1        
      16        8        9 am       
      17        8       35 1        
      18        9       10 2        
      19        9       11 am       
      20       11       12 1        
      21       11       36 1        
      22       12       13 1        
      23       12       37 1        
      24       12       38 1        
      25       13       14 1        
      26       13       39 1        
      27       13       40 1        
      28       14       19 ar       
      29       14       15 ar       
      30       15       16 ar       
      31       15       41 1        
      32       16       17 ar       
      33       16       42 1        
      34       17       18 ar       
      35       17       20 1        
      36       18       19 ar       
      37       18       43 1        
      38       19       44 1        
      39       20       21 1        
      40       21       22 1        
      41       21       45 1        
      42       21       46 1        
      43       22       23 2        
      44       22       24 am       
      45       24       47 1        
      46       24       48 1        
      47       25       26 2        
      48       25       27 1        
      49       27       28 1        
      50       28       49 1        
      51       28       50 1        
      52       28       51 1        

