#        1GCZ_R01_S0001_C0000_L00007_S0001_C0001_G0010_E0001.mol2
#        Tue Jun  6 14:07:50 2017
#        Descriptor:     25     8    30    12     8    13
#        Energy - RMSD - RMSD MassCentre:     -59.2912    999.9999    999.9999
#        Receptor:       1  Surface Point:     1  Conformer:     0
#        Ligand:         7  Surface Point:     1  Conformer:     1
#        BUDE Formal Charge: 0
#        ATOM Count: 51
#        Heavy ATOM Count: 28
@<TRIPOS>MOLECULE
ZINC61408927_1GCZ_R01_S0001_C0000_L00007_S0001_C0001_G0010_E0001
 51 52 0 0 0
SMALL
USER_CHARGES
@<TRIPOS>ATOM
       1 C1         6.2924   -3.3654    6.0052 C.3       1 <0>        -0.1139 
       2 C2         6.7683   -1.9757    6.3542 C.ar      1 <0>        -0.1278 
       3 C3         8.1259   -1.6631    6.2162 C.ar      1 <0>        -0.0331 
       4 C4         8.6253   -0.4125    6.5993 C.ar      1 <0>        -0.1443 
       5 C5         7.7452    0.5426    7.1112 C.ar      1 <0>        -0.0449 
       6 C6         6.3791    0.2539    7.2120 C.ar      1 <0>        -0.1321 
       7 C7         5.8839   -0.9953    6.8195 C.ar      1 <0>         0.2027 
       8 N1         4.4939   -1.2469    6.9036 N.am      1 <0>        -0.6834 
       9 C8         3.6486   -0.2456    7.1311 C.2       1 <0>         0.7034 
      10 O1         4.0823    0.9184    7.2706 O.2       1 <0>        -0.5648 
      11 N2         2.3423   -0.4835    7.2099 N.am      1 <0>        -0.7401 
      12 C9         1.4080    0.6232    7.4613 C.3       1 <0>         0.1407 
      13 C10        1.5158    1.6461    6.3315 C.3       1 <0>        -0.0859 
      14 C11        1.1001    1.0030    5.0300 C.ar      1 <0>        -0.1215 
      15 C12        2.0512    0.3713    4.2199 C.ar      1 <0>        -0.0699 
      16 C13        1.6690   -0.2325    3.0161 C.ar      1 <0>        -0.1435 
      17 C14        0.3325   -0.2098    2.6164 C.ar      1 <0>         0.1289 
      18 C15       -0.6228    0.4328    3.4129 C.ar      1 <0>        -0.2084 
      19 C16       -0.2363    1.0384    4.6146 C.ar      1 <0>        -0.0704 
      20 O2        -0.0436   -0.8215    1.4497 O.3       1 <0>        -0.2897 
      21 C17       -1.0089   -0.1611    0.6269 C.3       1 <0>         0.0392 
      22 C18       -0.4665    1.1799    0.1937 C.2       1 <0>         0.5189 
      23 O3        -0.9010    2.2121    0.7026 O.2       1 <0>        -0.5164 
      24 N3         0.4808    1.2442   -0.7377 N.am      1 <0>        -0.8500 
      25 C19       10.0663   -0.1004    6.4714 C.2       1 <0>         0.5100 
      26 O4        10.8187   -0.9206    6.0367 O.2       1 <0>        -0.5069 
      27 O5        10.5299    1.1110    6.8458 O.3       1 <0>        -0.3499 
      28 C20       11.9297    1.3668    6.7037 C.3       1 <0>         0.0344 
      29 H1         5.3185   -3.3043    5.5241 H         1 <0>         0.0741 
      30 H2         6.2121   -3.9593    6.9134 H         1 <0>         0.0756 
      31 H3         7.0039   -3.8323    5.3275 H         1 <0>         0.0654 
      32 H4         8.8062   -2.3940    5.8048 H         1 <0>         0.1419 
      33 H5         8.1133    1.5059    7.4316 H         1 <0>         0.1420 
      34 H6         5.6952    0.9983    7.5920 H         1 <0>         0.1513 
      35 H7         4.1435   -2.1873    6.7909 H         1 <0>         0.4099 
      36 H8         1.9930   -1.4244    7.0970 H         1 <0>         0.3991 
      37 H9         1.6570    1.0992    8.4074 H         1 <0>         0.0724 
      38 H10        0.3921    0.2363    7.5055 H         1 <0>         0.0717 
      39 H11        2.5443    1.9922    6.2533 H         1 <0>         0.0798 
      40 H12        0.8635    2.4905    6.5441 H         1 <0>         0.0807 
      41 H13        3.0897    0.3461    4.5154 H         1 <0>         0.1319 
      42 H14        2.4044   -0.7188    2.3922 H         1 <0>         0.1348 
      43 H15       -1.6536    0.4602    3.0919 H         1 <0>         0.1287 
      44 H16       -0.9826    1.5353    5.2169 H         1 <0>         0.1269 
      45 H17       -1.9274   -0.0162    1.1917 H         1 <0>         0.0958 
      46 H18       -1.2142   -0.7706   -0.2506 H         1 <0>         0.0955 
      47 H19        0.8435    2.1411   -1.0274 H         1 <0>         0.4037 
      48 H20        0.8367    0.3960   -1.1548 H         1 <0>         0.4105 
      49 H21       12.2091    1.2795    5.6558 H         1 <0>         0.0617 
      50 H22       12.1517    2.3717    7.0565 H         1 <0>         0.0616 
      51 H23       12.4913    0.6433    7.2909 H         1 <0>         0.1040 
@<TRIPOS>BOND
       1        1        2 1        
       2        1       29 1        
       3        1       30 1        
       4        1       31 1        
       5        2        7 ar       
       6        2        3 ar       
       7        3        4 ar       
       8        3       32 1        
       9        4        5 ar       
      10        4       25 1        
      11        5        6 ar       
      12        5       33 1        
      13        6        7 ar       
      14        6       34 1        
      15        7        8 1        
      16        8        9 am       
      17        8       35 1        
      18        9       10 2        
      19        9       11 am       
      20       11       12 1        
      21       11       36 1        
      22       12       13 1        
      23       12       37 1        
      24       12       38 1        
      25       13       14 1        
      26       13       39 1        
      27       13       40 1        
      28       14       19 ar       
      29       14       15 ar       
      30       15       16 ar       
      31       15       41 1        
      32       16       17 ar       
      33       16       42 1        
      34       17       18 ar       
      35       17       20 1        
      36       18       19 ar       
      37       18       43 1        
      38       19       44 1        
      39       20       21 1        
      40       21       22 1        
      41       21       45 1        
      42       21       46 1        
      43       22       23 2        
      44       22       24 am       
      45       24       47 1        
      46       24       48 1        
      47       25       26 2        
      48       25       27 1        
      49       27       28 1        
      50       28       49 1        
      51       28       50 1        
      52       28       51 1        

