#        1GCZ_R01_S0001_C0000_L00003_S0001_C0001_G0010_E0001.mol2
#        Tue Jun  6 14:03:27 2017
#        Descriptor:     33     9    14    11     6    14
#        Energy - RMSD - RMSD MassCentre:     -57.0742    999.9999    999.9999
#        Receptor:       1  Surface Point:     1  Conformer:     0
#        Ligand:         3  Surface Point:     1  Conformer:     1
#        BUDE Formal Charge: 0
#        ATOM Count: 58
#        Heavy ATOM Count: 30
@<TRIPOS>MOLECULE
ZINC61580633_1GCZ_R01_S0001_C0000_L00003_S0001_C0001_G0010_E0001
 58 59 0 0 0
SMALL
USER_CHARGES
@<TRIPOS>ATOM
       1 C1        -1.6108    1.2000    6.2003 C.3       1 <0>        -0.1532 
       2 C2        -1.2867   -0.0649    6.9899 C.3       1 <0>        -0.1224 
       3 C3        -1.9973   -1.2582    6.3526 C.3       1 <0>        -0.1198 
       4 C4        -1.6727   -2.5249    7.1432 C.3       1 <0>         0.0610 
       5 O1        -0.2685   -2.7851    7.0694 O.3       1 <0>        -0.3878 
       6 C5         0.0959   -3.9631    7.7936 C.3       1 <0>         0.0487 
       7 C6         1.6028   -4.1861    7.6767 C.3       1 <0>         0.1244 
       8 N1         1.9272   -4.6310    6.3138 N.am      1 <0>        -0.7216 
       9 C7         1.5988   -5.8580    5.9194 C.2       1 <0>         0.5161 
      10 O2         1.0240   -6.6207    6.6943 O.2       1 <0>        -0.5151 
      11 C8         1.9320   -6.3150    4.5193 C.3       1 <0>         0.0490 
      12 O3         3.3477   -6.4732    4.3947 O.3       1 <0>        -0.3194 
      13 C9         4.1230   -5.3784    4.5450 C.2       1 <0>         0.5417 
      14 O4         3.6120   -4.2956    4.7797 O.2       1 <0>        -0.5337 
      15 C10        5.5936   -5.4914    4.4251 C.2       1 <0>        -0.2559 
      16 C11        6.3161   -6.7549    4.1566 C.2       1 <0>        -0.0791 
      17 C12        7.6394   -6.5842    4.1102 C.2       1 <0>        -0.2585 
      18 S1         8.1205   -4.9021    4.3775 S.3       1 <0>         0.3028 
      19 C13        6.4204   -4.4459    4.5628 C.2       1 <0>         0.0893 
      20 N2         5.9613   -3.1826    4.8275 N.am      1 <0>        -0.6099 
      21 C14        6.8201   -2.1753    4.9561 C.2       1 <0>         0.5551 
      22 O5         8.0275   -2.3780    4.8372 O.2       1 <0>        -0.4939 
      23 C15        6.3225   -0.8112    5.2420 C.ar      1 <0>        -0.1466 
      24 C16        7.2616    0.2190    5.3726 C.ar      1 <0>        -0.0772 
      25 C17        6.8580    1.5149    5.7153 C.ar      1 <0>        -0.1241 
      26 C18        5.5074    1.8027    5.9440 C.ar      1 <0>        -0.0446 
      27 C19        4.5608    0.7874    5.7622 C.ar      1 <0>        -0.1261 
      28 C20        4.9656   -0.5003    5.3909 C.ar      1 <0>        -0.0460 
      29 C21        5.0994    3.1918    6.3733 C.3       1 <0>        -0.0928 
      30 C22        5.1083    3.2755    7.8969 C.3       1 <0>        -0.1485 
      31 H1        -2.6843    1.3758    6.2232 H         1 <0>         0.0567 
      32 H2        -1.2848    1.0770    5.1697 H         1 <0>         0.0554 
      33 H3        -1.0942    2.0473    6.6461 H         1 <0>         0.0557 
      34 H4        -0.2122   -0.2351    6.9783 H         1 <0>         0.0632 
      35 H5        -1.6250    0.0513    8.0174 H         1 <0>         0.0635 
      36 H6        -3.0719   -1.0897    6.3643 H         1 <0>         0.0711 
      37 H7        -1.6591   -1.3761    5.3252 H         1 <0>         0.0704 
      38 H8        -1.9613   -2.3880    8.1833 H         1 <0>         0.0498 
      39 H9        -2.2194   -3.3660    6.7221 H         1 <0>         0.0505 
      40 H10       -0.4302   -4.8210    7.3803 H         1 <0>         0.0584 
      41 H11       -0.1722   -3.8429    8.8413 H         1 <0>         0.0702 
      42 H12        1.9139   -4.9469    8.3895 H         1 <0>         0.0872 
      43 H13        2.1252   -3.2554    7.8877 H         1 <0>         0.0805 
      44 H14        2.3993   -4.0055    5.6766 H         1 <0>         0.4058 
      45 H15        1.4427   -7.2663    4.3215 H         1 <0>         0.1008 
      46 H16        1.5863   -5.5727    3.8030 H         1 <0>         0.0999 
      47 H17        5.8083   -7.6960    4.0061 H         1 <0>         0.1557 
      48 H18        8.3274   -7.3936    3.9159 H         1 <0>         0.1929 
      49 H19        4.9699   -3.0161    4.9251 H         1 <0>         0.4317 
      50 H20        8.3096    0.0132    5.2122 H         1 <0>         0.1287 
      51 H21        7.5908    2.3028    5.8071 H         1 <0>         0.1326 
      52 H22        3.5147    1.0126    5.9084 H         1 <0>         0.1342 
      53 H23        4.1872   -1.2262    5.2077 H         1 <0>         0.1410 
      54 H24        4.0988    3.4057    6.0035 H         1 <0>         0.0777 
      55 H25        5.8001    3.9173    5.9654 H         1 <0>         0.0771 
      56 H26        6.1121    3.0738    8.2647 H         1 <0>         0.0623 
      57 H27        4.4176    2.5400    8.3040 H         1 <0>         0.0572 
      58 H28        4.8015    4.2724    8.2064 H         1 <0>         0.0578 
@<TRIPOS>BOND
       1        1        2 1        
       2        1       31 1        
       3        1       32 1        
       4        1       33 1        
       5        2        3 1        
       6        2       34 1        
       7        2       35 1        
       8        3        4 1        
       9        3       36 1        
      10        3       37 1        
      11        4        5 1        
      12        4       38 1        
      13        4       39 1        
      14        5        6 1        
      15        6        7 1        
      16        6       40 1        
      17        6       41 1        
      18        7        8 1        
      19        7       42 1        
      20        7       43 1        
      21        8        9 am       
      22        8       44 1        
      23        9       10 2        
      24        9       11 1        
      25       11       12 1        
      26       11       45 1        
      27       11       46 1        
      28       12       13 1        
      29       13       14 2        
      30       13       15 1        
      31       15       19 2        
      32       15       16 1        
      33       16       17 2        
      34       16       47 1        
      35       17       18 1        
      36       17       48 1        
      37       18       19 1        
      38       19       20 1        
      39       20       21 am       
      40       20       49 1        
      41       21       22 2        
      42       21       23 1        
      43       23       28 ar       
      44       23       24 ar       
      45       24       25 ar       
      46       24       50 1        
      47       25       26 ar       
      48       25       51 1        
      49       26       27 ar       
      50       26       29 1        
      51       27       28 ar       
      52       27       52 1        
      53       28       53 1        
      54       29       30 1        
      55       29       54 1        
      56       29       55 1        
      57       30       56 1        
      58       30       57 1        
      59       30       58 1        

