#        1GCZ_R01_S0001_C0000_L00007_S0001_C0002_G0010_E0001.mol2
#        Tue Jun  6 09:56:25 2017
#        Descriptor:     28     4    11    14     7    13
#        Energy - RMSD - RMSD MassCentre:     -62.0562    999.9999    999.9999
#        Receptor:       1  Surface Point:     1  Conformer:     0
#        Ligand:         7  Surface Point:     1  Conformer:     2
#        BUDE Formal Charge: 0
#        ATOM Count: 51
#        Heavy ATOM Count: 28
@<TRIPOS>MOLECULE
ZINC61408927_1GCZ_R01_S0001_C0000_L00007_S0001_C0002_G0010_E0001
 51 52 0 0 0
SMALL
USER_CHARGES
@<TRIPOS>ATOM
       1 C1         2.8178    1.3857    3.6683 C.3       1 <0>        -0.1139 
       2 C2         2.6603    0.4941    4.8765 C.ar      1 <0>        -0.1278 
       3 C3         1.4587   -0.1996    5.0624 C.ar      1 <0>        -0.0331 
       4 C4         1.2390   -0.9774    6.2056 C.ar      1 <0>        -0.1443 
       5 C5         2.2475   -1.0732    7.1660 C.ar      1 <0>        -0.0449 
       6 C6         3.4687   -0.4181    6.9676 C.ar      1 <0>        -0.1321 
       7 C7         3.6861    0.3513    5.8184 C.ar      1 <0>         0.2027 
       8 N1         4.9418    0.9761    5.6307 N.am      1 <0>        -0.6834 
       9 C8         5.9694    0.6534    6.4108 C.2       1 <0>         0.7034 
      10 O1         5.8258   -0.2023    7.3106 O.2       1 <0>        -0.5648 
      11 N2         7.1491    1.2415    6.2332 N.am      1 <0>        -0.7401 
      12 C9         8.2849    0.8848    7.0955 C.3       1 <0>         0.1407 
      13 C10        8.5999   -0.6013    6.9325 C.3       1 <0>        -0.0859 
      14 C11        9.0234   -0.8720    5.5086 C.ar      1 <0>        -0.1215 
      15 C12        8.0707   -1.2182    4.5431 C.ar      1 <0>        -0.0699 
      16 C13        8.4579   -1.4628    3.2201 C.ar      1 <0>        -0.1435 
      17 C14        9.8006   -1.3606    2.8547 C.ar      1 <0>         0.1289 
      18 C15       10.7620   -1.0298    3.8171 C.ar      1 <0>        -0.2084 
      19 C16       10.3714   -0.7890    5.1399 C.ar      1 <0>        -0.0704 
      20 O2        10.1747   -1.5773    1.5548 O.3       1 <0>        -0.2897 
      21 C17       11.3823   -2.3053    1.3168 C.3       1 <0>         0.0392 
      22 C18       11.2611   -3.6879    1.9115 C.2       1 <0>         0.5189 
      23 O3        11.8627   -3.9661    2.9478 O.2       1 <0>        -0.5164 
      24 N3        10.5038   -4.6040    1.3147 N.am      1 <0>        -0.8500 
      25 C19       -0.0441   -1.6878    6.4037 C.2       1 <0>         0.5100 
      26 O4        -0.9077   -1.6012    5.5823 O.2       1 <0>        -0.5069 
      27 O5        -0.2381   -2.4333    7.5124 O.3       1 <0>        -0.3499 
      28 C20       -1.4939   -3.1013    7.6603 C.3       1 <0>         0.0344 
      29 H1         3.8345    1.3057    3.2893 H         1 <0>         0.0741 
      30 H2         2.6157    2.4169    3.9505 H         1 <0>         0.0756 
      31 H3         2.1168    1.0763    2.8960 H         1 <0>         0.0654 
      32 H4         0.6832   -0.1408    4.3130 H         1 <0>         0.1419 
      33 H5         2.0905   -1.6513    8.0645 H         1 <0>         0.1420 
      34 H6         4.2555   -0.5058    7.7021 H         1 <0>         0.1513 
      35 H7         5.0578    1.6675    4.9037 H         1 <0>         0.4099 
      36 H8         7.2640    1.9327    5.5059 H         1 <0>         0.3991 
      37 H9         8.0302    1.0905    8.1331 H         1 <0>         0.0724 
      38 H10        9.1543    1.4738    6.8112 H         1 <0>         0.0717 
      39 H11        7.7132   -1.1871    7.1653 H         1 <0>         0.0798 
      40 H12        9.4056   -0.8771    7.6098 H         1 <0>         0.0807 
      41 H13        7.0278   -1.3019    4.8107 H         1 <0>         0.1319 
      42 H14        7.7215   -1.7303    2.4769 H         1 <0>         0.1348 
      43 H15       11.8018   -0.9662    3.5323 H         1 <0>         0.1287 
      44 H16       11.1240   -0.5399    5.8734 H         1 <0>         0.1269 
      45 H17       12.2170   -1.7828    1.7791 H         1 <0>         0.0958 
      46 H18       11.5520   -2.3845    0.2450 H         1 <0>         0.0955 
      47 H19       10.0103   -4.3745    0.4641 H         1 <0>         0.4037 
      48 H20       10.4227   -5.5288    1.7126 H         1 <0>         0.4105 
      49 H21       -1.6331   -3.7972    6.8356 H         1 <0>         0.0617 
      50 H22       -1.5053   -3.6465    8.6017 H         1 <0>         0.0616 
      51 H23       -2.2971   -2.3675    7.6558 H         1 <0>         0.1040 
@<TRIPOS>BOND
       1        1        2 1        
       2        1       29 1        
       3        1       30 1        
       4        1       31 1        
       5        2        7 ar       
       6        2        3 ar       
       7        3        4 ar       
       8        3       32 1        
       9        4        5 ar       
      10        4       25 1        
      11        5        6 ar       
      12        5       33 1        
      13        6        7 ar       
      14        6       34 1        
      15        7        8 1        
      16        8        9 am       
      17        8       35 1        
      18        9       10 2        
      19        9       11 am       
      20       11       12 1        
      21       11       36 1        
      22       12       13 1        
      23       12       37 1        
      24       12       38 1        
      25       13       14 1        
      26       13       39 1        
      27       13       40 1        
      28       14       19 ar       
      29       14       15 ar       
      30       15       16 ar       
      31       15       41 1        
      32       16       17 ar       
      33       16       42 1        
      34       17       18 ar       
      35       17       20 1        
      36       18       19 ar       
      37       18       43 1        
      38       19       44 1        
      39       20       21 1        
      40       21       22 1        
      41       21       45 1        
      42       21       46 1        
      43       22       23 2        
      44       22       24 am       
      45       24       47 1        
      46       24       48 1        
      47       25       26 2        
      48       25       27 1        
      49       27       28 1        
      50       28       49 1        
      51       28       50 1        
      52       28       51 1        

