#        1GCZ_R01_S0001_C0000_L00007_S0001_C0003_G0010_E0001.mol2
#        Tue Jun  6 14:07:53 2017
#        Descriptor:     34    16    12     8    12    15
#        Energy - RMSD - RMSD MassCentre:     -62.2320    999.9999    999.9999
#        Receptor:       1  Surface Point:     1  Conformer:     0
#        Ligand:         7  Surface Point:     1  Conformer:     3
#        BUDE Formal Charge: 0
#        ATOM Count: 51
#        Heavy ATOM Count: 28
@<TRIPOS>MOLECULE
ZINC61408927_1GCZ_R01_S0001_C0000_L00007_S0001_C0003_G0010_E0001
 51 52 0 0 0
SMALL
USER_CHARGES
@<TRIPOS>ATOM
       1 C1        -2.2645    0.6021    7.1403 C.3       1 <0>        -0.1139 
       2 C2        -1.1165    0.6367    6.1602 C.ar      1 <0>        -0.1278 
       3 C3        -1.2881    0.0822    4.8863 C.ar      1 <0>        -0.0331 
       4 C4        -0.2296    0.0233    3.9719 C.ar      1 <0>        -0.1443 
       5 C5         1.0129    0.5448    4.3366 C.ar      1 <0>        -0.0449 
       6 C6         1.1817    1.1404    5.5922 C.ar      1 <0>        -0.1321 
       7 C7         0.1175    1.2042    6.4994 C.ar      1 <0>         0.2027 
       8 N1         0.3098    1.8403    7.7488 N.am      1 <0>        -0.6834 
       9 C8         1.4044    2.5637    7.9663 C.2       1 <0>         0.7034 
      10 O1         2.2639    2.6817    7.0664 O.2       1 <0>        -0.5648 
      11 N2         1.5837    3.1610    9.1411 N.am      1 <0>        -0.7401 
      12 C9         2.7936    3.9605    9.3814 C.3       1 <0>         0.1407 
      13 C10        2.8460    5.1159    8.3831 C.3       1 <0>        -0.0859 
      14 C11        1.6623    6.0267    8.6059 C.ar      1 <0>        -0.1215 
      15 C12        0.4638    5.8071    7.9166 C.ar      1 <0>        -0.0699 
      16 C13       -0.6384    6.6445    8.1256 C.ar      1 <0>        -0.1435 
      17 C14       -0.5489    7.7056    9.0271 C.ar      1 <0>         0.1289 
      18 C15        0.6506    7.9416    9.7095 C.ar      1 <0>        -0.2084 
      19 C16        1.7518    7.1040    9.4955 C.ar      1 <0>        -0.0704 
      20 O2        -1.6357    8.5099    9.2479 O.3       1 <0>        -0.2897 
      21 C17       -1.4132    9.9159    9.3834 C.3       1 <0>         0.0392 
      22 C18       -2.7319   10.6128    9.6192 C.2       1 <0>         0.5189 
      23 O3        -3.0123   11.0345   10.7401 O.2       1 <0>        -0.5164 
      24 N3        -3.5893   10.7702    8.6147 N.am      1 <0>        -0.8500 
      25 C19       -0.4151   -0.5865    2.6362 C.2       1 <0>         0.5100 
      26 O4        -1.4784   -1.0359    2.3274 O.2       1 <0>        -0.5069 
      27 O5         0.6170   -0.6344    1.7673 O.3       1 <0>        -0.3499 
      28 C20        0.3902   -1.2330    0.4886 C.3       1 <0>         0.0344 
      29 H1        -2.2821    1.5288    7.7100 H         1 <0>         0.0741 
      30 H2        -2.1361   -0.2388    7.8187 H         1 <0>         0.0756 
      31 H3        -3.2008    0.4914    6.5975 H         1 <0>         0.0654 
      32 H4        -2.2526   -0.3067    4.5954 H         1 <0>         0.1419 
      33 H5         1.8478    0.4908    3.6536 H         1 <0>         0.1420 
      34 H6         2.1381    1.5592    5.8684 H         1 <0>         0.1513 
      35 H7        -0.3847    1.7449    8.4758 H         1 <0>         0.4099 
      36 H8         0.8886    3.0649    9.8674 H         1 <0>         0.3991 
      37 H9         3.6733    3.3324    9.2567 H         1 <0>         0.0724 
      38 H10        2.7706    4.3564   10.3945 H         1 <0>         0.0717 
      39 H11        2.8146    4.7208    7.3699 H         1 <0>         0.0798 
      40 H12        3.7676    5.6764    8.5260 H         1 <0>         0.0807 
      41 H13        0.3794    4.9904    7.2150 H         1 <0>         0.1319 
      42 H14       -1.5619    6.4739    7.5923 H         1 <0>         0.1348 
      43 H15        0.7192    8.7730   10.3953 H         1 <0>         0.1287 
      44 H16        2.6727    7.3005   10.0245 H         1 <0>         0.1269 
      45 H17       -0.9572   10.2996    8.4731 H         1 <0>         0.0958 
      46 H18       -0.7503   10.0980   10.2266 H         1 <0>         0.0955 
      47 H19       -4.4713   11.2363    8.7725 H         1 <0>         0.4037 
      48 H20       -3.3580   10.4236    7.6948 H         1 <0>         0.4105 
      49 H21       -0.3844   -0.6794   -0.0380 H         1 <0>         0.0617 
      50 H22        1.3109   -1.2098   -0.0906 H         1 <0>         0.0616 
      51 H23        0.0716   -2.2646    0.6231 H         1 <0>         0.1040 
@<TRIPOS>BOND
       1        1        2 1        
       2        1       29 1        
       3        1       30 1        
       4        1       31 1        
       5        2        7 ar       
       6        2        3 ar       
       7        3        4 ar       
       8        3       32 1        
       9        4        5 ar       
      10        4       25 1        
      11        5        6 ar       
      12        5       33 1        
      13        6        7 ar       
      14        6       34 1        
      15        7        8 1        
      16        8        9 am       
      17        8       35 1        
      18        9       10 2        
      19        9       11 am       
      20       11       12 1        
      21       11       36 1        
      22       12       13 1        
      23       12       37 1        
      24       12       38 1        
      25       13       14 1        
      26       13       39 1        
      27       13       40 1        
      28       14       19 ar       
      29       14       15 ar       
      30       15       16 ar       
      31       15       41 1        
      32       16       17 ar       
      33       16       42 1        
      34       17       18 ar       
      35       17       20 1        
      36       18       19 ar       
      37       18       43 1        
      38       19       44 1        
      39       20       21 1        
      40       21       22 1        
      41       21       45 1        
      42       21       46 1        
      43       22       23 2        
      44       22       24 am       
      45       24       47 1        
      46       24       48 1        
      47       25       26 2        
      48       25       27 1        
      49       27       28 1        
      50       28       49 1        
      51       28       50 1        
      52       28       51 1        

