#        1GCZ_R01_S0001_C0000_L00007_S0001_C0004_G0010_E0001.mol2
#        Tue Jun  6 09:56:26 2017
#        Descriptor:      8    12    27    13     5    12
#        Energy - RMSD - RMSD MassCentre:     -61.8081    999.9999    999.9999
#        Receptor:       1  Surface Point:     1  Conformer:     0
#        Ligand:         7  Surface Point:     1  Conformer:     4
#        BUDE Formal Charge: 0
#        ATOM Count: 51
#        Heavy ATOM Count: 28
@<TRIPOS>MOLECULE
ZINC61408927_1GCZ_R01_S0001_C0000_L00007_S0001_C0004_G0010_E0001
 51 52 0 0 0
SMALL
USER_CHARGES
@<TRIPOS>ATOM
       1 C1         3.8845    0.9228    3.7550 C.3       1 <0>        -0.1139 
       2 C2         2.9699   -0.0183    4.5016 C.ar      1 <0>        -0.1278 
       3 C3         1.5842    0.1121    4.3512 C.ar      1 <0>        -0.0331 
       4 C4         0.6966   -0.6874    5.0813 C.ar      1 <0>        -0.1443 
       5 C5         1.2091   -1.6427    5.9608 C.ar      1 <0>        -0.0449 
       6 C6         2.5934   -1.8097    6.0851 C.ar      1 <0>        -0.1321 
       7 C7         3.4763   -1.0132    5.3462 C.ar      1 <0>         0.2027 
       8 N1         4.8698   -1.2266    5.4693 N.am      1 <0>        -0.6834 
       9 C8         5.3252   -2.3087    6.0941 C.2       1 <0>         0.7034 
      10 O1         4.5216   -3.1379    6.5729 O.2       1 <0>        -0.5648 
      11 N2         6.6352   -2.5079    6.2091 N.am      1 <0>        -0.7401 
      12 C9         7.1385   -3.7040    6.8997 C.3       1 <0>         0.1407 
      13 C10        6.6511   -4.9549    6.1703 C.3       1 <0>        -0.0859 
      14 C11        7.2233   -4.9771    4.7731 C.ar      1 <0>        -0.1215 
      15 C12        6.5239   -4.3847    3.7150 C.ar      1 <0>        -0.0699 
      16 C13        7.0541   -4.3965    2.4194 C.ar      1 <0>        -0.1435 
      17 C14        8.2885   -4.9993    2.1749 C.ar      1 <0>         0.1289 
      18 C15        8.9876   -5.6073    3.2244 C.ar      1 <0>        -0.2084 
      19 C16        8.4527   -5.5964    4.5182 C.ar      1 <0>        -0.0704 
      20 O2         8.8168   -4.9893    0.9110 O.3       1 <0>        -0.2897 
      21 C17        9.4704   -6.1739    0.4478 C.3       1 <0>         0.0392 
      22 C18        9.9762   -5.9518   -0.9575 C.2       1 <0>         0.5189 
      23 O3        11.1782   -5.7859   -1.1590 O.2       1 <0>        -0.5164 
      24 N3         9.1216   -5.9357   -1.9765 N.am      1 <0>        -0.8500 
      25 C19       -0.7669   -0.5254    4.9325 C.2       1 <0>         0.5100 
      26 O4        -1.2037    0.2956    4.1821 O.2       1 <0>        -0.5069 
      27 O5        -1.6077   -1.3054    5.6447 O.3       1 <0>        -0.3499 
      28 C20       -3.0136   -1.1125    5.4678 C.3       1 <0>         0.0344 
      29 H1         4.7628    0.3791    3.4134 H         1 <0>         0.0741 
      30 H2         4.1917    1.7301    4.4167 H         1 <0>         0.0756 
      31 H3         3.3571    1.3363    2.8979 H         1 <0>         0.0654 
      32 H4         1.1851    0.8386    3.6590 H         1 <0>         0.1419 
      33 H5         0.5416   -2.2553    6.5485 H         1 <0>         0.1420 
      34 H6         2.9903   -2.5601    6.7526 H         1 <0>         0.1513 
      35 H7         5.5190   -0.5566    5.0825 H         1 <0>         0.4099 
      36 H8         7.2836   -1.8372    5.8219 H         1 <0>         0.3991 
      37 H9         6.7695   -3.7132    7.9232 H         1 <0>         0.0724 
      38 H10        8.2263   -3.6877    6.9058 H         1 <0>         0.0717 
      39 H11        5.5644   -4.9431    6.1176 H         1 <0>         0.0798 
      40 H12        6.9788   -5.8403    6.7113 H         1 <0>         0.0807 
      41 H13        5.5670   -3.9149    3.8883 H         1 <0>         0.1319 
      42 H14        6.5127   -3.9395    1.6043 H         1 <0>         0.1348 
      43 H15        9.9358   -6.0852    3.0272 H         1 <0>         0.1287 
      44 H16        9.0000   -6.0738    5.3176 H         1 <0>         0.1269 
      45 H17        8.7651   -7.0022    0.4534 H         1 <0>         0.0958 
      46 H18       10.3077   -6.4051    1.1029 H         1 <0>         0.0955 
      47 H19        8.1350   -6.0721   -1.8099 H         1 <0>         0.4037 
      48 H20        9.4600   -5.7873   -2.9165 H         1 <0>         0.4105 
      49 H21       -3.2774   -1.3036    4.4297 H         1 <0>         0.0617 
      50 H22       -3.5574   -1.7991    6.1132 H         1 <0>         0.0616 
      51 H23       -3.2739   -0.0881    5.7260 H         1 <0>         0.1040 
@<TRIPOS>BOND
       1        1        2 1        
       2        1       29 1        
       3        1       30 1        
       4        1       31 1        
       5        2        7 ar       
       6        2        3 ar       
       7        3        4 ar       
       8        3       32 1        
       9        4        5 ar       
      10        4       25 1        
      11        5        6 ar       
      12        5       33 1        
      13        6        7 ar       
      14        6       34 1        
      15        7        8 1        
      16        8        9 am       
      17        8       35 1        
      18        9       10 2        
      19        9       11 am       
      20       11       12 1        
      21       11       36 1        
      22       12       13 1        
      23       12       37 1        
      24       12       38 1        
      25       13       14 1        
      26       13       39 1        
      27       13       40 1        
      28       14       19 ar       
      29       14       15 ar       
      30       15       16 ar       
      31       15       41 1        
      32       16       17 ar       
      33       16       42 1        
      34       17       18 ar       
      35       17       20 1        
      36       18       19 ar       
      37       18       43 1        
      38       19       44 1        
      39       20       21 1        
      40       21       22 1        
      41       21       45 1        
      42       21       46 1        
      43       22       23 2        
      44       22       24 am       
      45       24       47 1        
      46       24       48 1        
      47       25       26 2        
      48       25       27 1        
      49       27       28 1        
      50       28       49 1        
      51       28       50 1        
      52       28       51 1        

