#        1GCZ_R01_S0001_C0000_L00007_S0001_C0005_G0010_E0001.mol2
#        Tue Jun  6 14:07:57 2017
#        Descriptor:     28    13    10    15     9    13
#        Energy - RMSD - RMSD MassCentre:     -59.9759    999.9999    999.9999
#        Receptor:       1  Surface Point:     1  Conformer:     0
#        Ligand:         7  Surface Point:     1  Conformer:     5
#        BUDE Formal Charge: 0
#        ATOM Count: 51
#        Heavy ATOM Count: 28
@<TRIPOS>MOLECULE
ZINC61408927_1GCZ_R01_S0001_C0000_L00007_S0001_C0005_G0010_E0001
 51 52 0 0 0
SMALL
USER_CHARGES
@<TRIPOS>ATOM
       1 C1         2.6100    3.7591    7.5390 C.3       1 <0>        -0.1139 
       2 C2         2.3738    2.4906    6.7550 C.ar      1 <0>        -0.1278 
       3 C3         1.0604    2.0703    6.5141 C.ar      1 <0>        -0.0331 
       4 C4         0.7936    0.8624    5.8584 C.ar      1 <0>        -0.1443 
       5 C5         1.8614    0.0755    5.4234 C.ar      1 <0>        -0.0449 
       6 C6         3.1777    0.5090    5.6213 C.ar      1 <0>        -0.1321 
       7 C7         3.4385    1.7219    6.2700 C.ar      1 <0>         0.2027 
       8 N1         4.7784    2.1488    6.4276 N.am      1 <0>        -0.6834 
       9 C8         5.7561    1.5290    5.7729 C.2       1 <0>         0.7034 
      10 O1         5.4912    0.5686    5.0179 O.2       1 <0>        -0.5648 
      11 N2         7.0151    1.9314    5.9220 N.am      1 <0>        -0.7401 
      12 C9         8.0957    1.2463    5.1984 C.3       1 <0>         0.1407 
      13 C10        9.4329    1.8999    5.5437 C.3       1 <0>        -0.0859 
      14 C11       10.5430    1.1962    4.8004 C.ar      1 <0>        -0.1215 
      15 C12       11.2025    0.1076    5.3834 C.ar      1 <0>        -0.0699 
      16 C13       12.2275   -0.5524    4.6948 C.ar      1 <0>        -0.1435 
      17 C14       12.5973   -0.1285    3.4181 C.ar      1 <0>         0.1289 
      18 C15       11.9532    0.9686    2.8337 C.ar      1 <0>        -0.2084 
      19 C16       10.9311    1.6283    3.5266 C.ar      1 <0>        -0.0704 
      20 O2        13.5843   -0.7902    2.7363 O.3       1 <0>        -0.2897 
      21 C17       14.5196   -0.0108    1.9862 C.3       1 <0>         0.0392 
      22 C18       15.2603    0.9186    2.9177 C.2       1 <0>         0.5189 
      23 O3        14.9956    2.1199    2.9259 O.2       1 <0>        -0.5164 
      24 N3        16.1984    0.4378    3.7287 N.am      1 <0>        -0.8500 
      25 C19       -0.5987    0.4157    5.6297 C.2       1 <0>         0.5100 
      26 O4        -1.5113    1.0888    6.0064 O.2       1 <0>        -0.5069 
      27 O5        -0.8368   -0.7520    4.9955 O.3       1 <0>        -0.3499 
      28 C20       -2.1982   -1.1423    4.7972 C.3       1 <0>         0.0344 
      29 H1         3.4581    4.2934    7.1160 H         1 <0>         0.0741 
      30 H2         2.8193    3.5094    8.5771 H         1 <0>         0.0756 
      31 H3         1.7230    4.3869    7.4880 H         1 <0>         0.0654 
      32 H4         0.2324    2.6852    6.8346 H         1 <0>         0.1419 
      33 H5         1.6774   -0.8694    4.9338 H         1 <0>         0.1420 
      34 H6         4.0039   -0.0912    5.2698 H         1 <0>         0.1513 
      35 H7         4.9924    2.9247    7.0376 H         1 <0>         0.4099 
      36 H8         7.2279    2.7075    6.5323 H         1 <0>         0.3991 
      37 H9         7.9196    1.3229    4.1274 H         1 <0>         0.0724 
      38 H10        8.1180    0.1980    5.4888 H         1 <0>         0.0717 
      39 H11        9.6074    1.8233    6.6148 H         1 <0>         0.0798 
      40 H12        9.4091    2.9483    5.2535 H         1 <0>         0.0807 
      41 H13       10.9280   -0.2318    6.3712 H         1 <0>         0.1319 
      42 H14       12.7355   -1.3916    5.1466 H         1 <0>         0.1348 
      43 H15       12.2533    1.3019    1.8513 H         1 <0>         0.1287 
      44 H16       10.4463    2.4766    3.0664 H         1 <0>         0.1269 
      45 H17       13.9870    0.5729    1.2384 H         1 <0>         0.0958 
      46 H18       15.2290   -0.6723    1.4933 H         1 <0>         0.0955 
      47 H19       16.4149   -0.5486    3.7210 H         1 <0>         0.4037 
      48 H20       16.6938    1.0595    4.3516 H         1 <0>         0.4105 
      49 H21       -2.7046   -0.3941    4.1909 H         1 <0>         0.0617 
      50 H22       -2.2290   -2.1036    4.2888 H         1 <0>         0.0616 
      51 H23       -2.6951   -1.2253    5.7615 H         1 <0>         0.1040 
@<TRIPOS>BOND
       1        1        2 1        
       2        1       29 1        
       3        1       30 1        
       4        1       31 1        
       5        2        7 ar       
       6        2        3 ar       
       7        3        4 ar       
       8        3       32 1        
       9        4        5 ar       
      10        4       25 1        
      11        5        6 ar       
      12        5       33 1        
      13        6        7 ar       
      14        6       34 1        
      15        7        8 1        
      16        8        9 am       
      17        8       35 1        
      18        9       10 2        
      19        9       11 am       
      20       11       12 1        
      21       11       36 1        
      22       12       13 1        
      23       12       37 1        
      24       12       38 1        
      25       13       14 1        
      26       13       39 1        
      27       13       40 1        
      28       14       19 ar       
      29       14       15 ar       
      30       15       16 ar       
      31       15       41 1        
      32       16       17 ar       
      33       16       42 1        
      34       17       18 ar       
      35       17       20 1        
      36       18       19 ar       
      37       18       43 1        
      38       19       44 1        
      39       20       21 1        
      40       21       22 1        
      41       21       45 1        
      42       21       46 1        
      43       22       23 2        
      44       22       24 am       
      45       24       47 1        
      46       24       48 1        
      47       25       26 2        
      48       25       27 1        
      49       27       28 1        
      50       28       49 1        
      51       28       50 1        
      52       28       51 1        

