#        1GCZ_R01_S0001_C0000_L00007_S0001_C0006_G0010_E0001.mol2
#        Tue Jun  6 09:56:28 2017
#        Descriptor:     12     3    10    15    10    13
#        Energy - RMSD - RMSD MassCentre:     -65.9043    999.9999    999.9999
#        Receptor:       1  Surface Point:     1  Conformer:     0
#        Ligand:         7  Surface Point:     1  Conformer:     6
#        BUDE Formal Charge: 0
#        ATOM Count: 51
#        Heavy ATOM Count: 28
@<TRIPOS>MOLECULE
ZINC61408927_1GCZ_R01_S0001_C0000_L00007_S0001_C0006_G0010_E0001
 51 52 0 0 0
SMALL
USER_CHARGES
@<TRIPOS>ATOM
       1 C1        12.2852    1.2927    7.2128 C.3       1 <0>        -0.1139 
       2 C2        12.0664    2.1696    6.0034 C.ar      1 <0>        -0.1278 
       3 C3        13.1758    2.6871    5.3243 C.ar      1 <0>        -0.0331 
       4 C4        13.0212    3.5652    4.2449 C.ar      1 <0>        -0.1443 
       5 C5        11.7341    3.9137    3.8317 C.ar      1 <0>        -0.0449 
       6 C6        10.6188    3.3668    4.4772 C.ar      1 <0>        -0.1321 
       7 C7        10.7792    2.4825    5.5505 C.ar      1 <0>         0.2027 
       8 N1         9.6334    1.9215    6.1628 N.am      1 <0>        -0.6834 
       9 C8         8.4412    2.0486    5.5873 C.2       1 <0>         0.7034 
      10 O1         8.3328    2.6642    4.5048 O.2       1 <0>        -0.5648 
      11 N2         7.3651    1.5208    6.1640 N.am      1 <0>        -0.7401 
      12 C9         6.0474    1.6614    5.5278 C.3       1 <0>         0.1407 
      13 C10        4.9910    0.9705    6.3887 C.3       1 <0>        -0.0859 
      14 C11        3.6374    1.1148    5.7353 C.ar      1 <0>        -0.1215 
      15 C12        2.8196    2.2090    6.0416 C.ar      1 <0>        -0.0699 
      16 C13        1.5668    2.3506    5.4326 C.ar      1 <0>        -0.1435 
      17 C14        1.1258    1.3995    4.5121 C.ar      1 <0>         0.1289 
      18 C15        1.9308    0.2944    4.2112 C.ar      1 <0>        -0.2084 
      19 C16        3.1814    0.1543    4.8246 C.ar      1 <0>        -0.0704 
      20 O2        -0.0901    1.5521    3.8996 O.3       1 <0>        -0.2897 
      21 C17       -0.8993    0.3875    3.7156 C.3       1 <0>         0.0392 
      22 C18       -1.2259   -0.2151    5.0611 C.2       1 <0>         0.5189 
      23 O3        -0.6652   -1.2480    5.4242 O.2       1 <0>        -0.5164 
      24 N3        -2.1194    0.3713    5.8527 N.am      1 <0>        -0.8500 
      25 C19       14.2010    4.1254    3.5487 C.2       1 <0>         0.5100 
      26 O4        15.3019    3.8290    3.9065 O.2       1 <0>        -0.5069 
      27 O5        14.0327    4.9707    2.5097 O.3       1 <0>        -0.3499 
      28 C20       15.2021    5.4864    1.8682 C.3       1 <0>         0.0344 
      29 H1        11.5471    0.4935    7.2189 H         1 <0>         0.0741 
      30 H2        12.1813    1.8898    8.1165 H         1 <0>         0.0756 
      31 H3        13.2844    0.8642    7.1734 H         1 <0>         0.0654 
      32 H4        14.1724    2.4060    5.6310 H         1 <0>         0.1419 
      33 H5        11.5933    4.6055    3.0144 H         1 <0>         0.1420 
      34 H6         9.6229    3.6227    4.1470 H         1 <0>         0.1513 
      35 H7         9.7211    1.4242    7.0374 H         1 <0>         0.4099 
      36 H8         7.4539    1.0237    7.0386 H         1 <0>         0.3991 
      37 H9         6.0705    1.2015    4.5420 H         1 <0>         0.0724 
      38 H10        5.8032    2.7171    5.4306 H         1 <0>         0.0717 
      39 H11        4.9696    1.4307    7.3743 H         1 <0>         0.0798 
      40 H12        5.2368   -0.0850    6.4858 H         1 <0>         0.0807 
      41 H13        3.1468    2.9531    6.7526 H         1 <0>         0.1319 
      42 H14        0.9371    3.1951    5.6707 H         1 <0>         0.1348 
      43 H15        1.5784   -0.4466    3.5091 H         1 <0>         0.1287 
      44 H16        3.7900   -0.7060    4.5876 H         1 <0>         0.1269 
      45 H17       -0.3569   -0.3389    3.1143 H         1 <0>         0.0958 
      46 H18       -1.8212    0.6637    3.2079 H         1 <0>         0.0955 
      47 H19       -2.3378   -0.0318    6.7525 H         1 <0>         0.4037 
      48 H20       -2.5791    1.2193    5.5534 H         1 <0>         0.4105 
      49 H21       15.7833    4.6628    1.4586 H         1 <0>         0.0617 
      50 H22       14.9078    6.1584    1.0648 H         1 <0>         0.0616 
      51 H23       15.8035    6.0296    2.5941 H         1 <0>         0.1040 
@<TRIPOS>BOND
       1        1        2 1        
       2        1       29 1        
       3        1       30 1        
       4        1       31 1        
       5        2        7 ar       
       6        2        3 ar       
       7        3        4 ar       
       8        3       32 1        
       9        4        5 ar       
      10        4       25 1        
      11        5        6 ar       
      12        5       33 1        
      13        6        7 ar       
      14        6       34 1        
      15        7        8 1        
      16        8        9 am       
      17        8       35 1        
      18        9       10 2        
      19        9       11 am       
      20       11       12 1        
      21       11       36 1        
      22       12       13 1        
      23       12       37 1        
      24       12       38 1        
      25       13       14 1        
      26       13       39 1        
      27       13       40 1        
      28       14       19 ar       
      29       14       15 ar       
      30       15       16 ar       
      31       15       41 1        
      32       16       17 ar       
      33       16       42 1        
      34       17       18 ar       
      35       17       20 1        
      36       18       19 ar       
      37       18       43 1        
      38       19       44 1        
      39       20       21 1        
      40       21       22 1        
      41       21       45 1        
      42       21       46 1        
      43       22       23 2        
      44       22       24 am       
      45       24       47 1        
      46       24       48 1        
      47       25       26 2        
      48       25       27 1        
      49       27       28 1        
      50       28       49 1        
      51       28       50 1        
      52       28       51 1        

