#        1GCZ_R01_S0001_C0000_L00003_S0001_C0002_G0010_E0001.mol2
#        Tue Jun  6 09:54:37 2017
#        Descriptor:      3    27    14    10     8    11
#        Energy - RMSD - RMSD MassCentre:     -62.3466    999.9999    999.9999
#        Receptor:       1  Surface Point:     1  Conformer:     0
#        Ligand:         3  Surface Point:     1  Conformer:     2
#        BUDE Formal Charge: 0
#        ATOM Count: 58
#        Heavy ATOM Count: 30
@<TRIPOS>MOLECULE
ZINC61580633_1GCZ_R01_S0001_C0000_L00003_S0001_C0002_G0010_E0001
 58 59 0 0 0
SMALL
USER_CHARGES
@<TRIPOS>ATOM
       1 C1         0.0565    0.5886   -4.2902 C.3       1 <0>        -0.1532 
       2 C2         0.0284    1.2197   -2.9012 C.3       1 <0>        -0.1224 
       3 C3        -0.2155    0.1338   -1.8541 C.3       1 <0>        -0.1198 
       4 C4        -0.2436    0.7659   -0.4632 C.3       1 <0>         0.0610 
       5 O1        -0.4718   -0.2503    0.5167 O.3       1 <0>        -0.3878 
       6 C5        -0.5082    0.2841    1.8426 C.3       1 <0>         0.0487 
       7 C6        -0.7544   -0.8470    2.8400 C.3       1 <0>         0.1244 
       8 N1        -0.7918   -0.2977    4.2029 N.am      1 <0>        -0.7216 
       9 C7        -1.8322    0.4311    4.5973 C.2       1 <0>         0.5161 
      10 O2        -2.7627    0.6459    3.8224 O.2       1 <0>        -0.5151 
      11 C8        -1.8707    0.9954    5.9974 C.3       1 <0>         0.0490 
      12 O3        -0.8879    2.0266    6.1220 O.3       1 <0>        -0.3194 
      13 C9         0.4098    1.6862    5.9717 C.2       1 <0>         0.5417 
      14 O4         0.7143    0.5283    5.7370 O.2       1 <0>        -0.5337 
      15 C10        1.4637    2.7181    6.0916 C.2       1 <0>        -0.2559 
      16 C11        1.2050    4.1504    6.3601 C.2       1 <0>        -0.0791 
      17 C12        2.3284    4.8702    6.4065 C.2       1 <0>        -0.2585 
      18 S1         3.7782    3.8909    6.1392 S.3       1 <0>         0.3028 
      19 C13        2.7691    2.4487    5.9539 C.2       1 <0>         0.0893 
      20 N2         3.2294    1.1858    5.6892 N.am      1 <0>        -0.6099 
      21 C14        4.5348    0.9662    5.5606 C.2       1 <0>         0.5551 
      22 O5         5.3294    1.8976    5.6795 O.2       1 <0>        -0.4939 
      23 C15        5.0304   -0.3987    5.2747 C.ar      1 <0>        -0.1466 
      24 C16        6.4120   -0.5841    5.1441 C.ar      1 <0>        -0.0772 
      25 C17        6.9358   -1.8363    4.8014 C.ar      1 <0>        -0.1241 
      26 C18        6.0862   -2.9249    4.5727 C.ar      1 <0>        -0.0446 
      27 C19        4.7084   -2.7556    4.7545 C.ar      1 <0>        -0.1261 
      28 C20        4.1908   -1.5090    5.1258 C.ar      1 <0>        -0.0460 
      29 C21        6.6666   -4.2513    4.1434 C.3       1 <0>        -0.0928 
      30 C22        6.7272   -4.3097    2.6198 C.3       1 <0>        -0.1485 
      31 H1        -0.9016    0.1139   -4.4915 H         1 <0>         0.0567 
      32 H2         0.8474   -0.1572   -4.3331 H         1 <0>         0.0554 
      33 H3         0.2434    1.3597   -5.0345 H         1 <0>         0.0557 
      34 H4         0.9816    1.7056   -2.7036 H         1 <0>         0.0632 
      35 H5        -0.7714    1.9558   -2.8525 H         1 <0>         0.0635 
      36 H6        -1.1687   -0.3522   -2.0501 H         1 <0>         0.0711 
      37 H7         0.5843   -0.6023   -1.9012 H         1 <0>         0.0704 
      38 H8         0.7097    1.2518   -0.2656 H         1 <0>         0.0498 
      39 H9        -1.0435    1.5018   -0.4147 H         1 <0>         0.0505 
      40 H10       -1.3111    1.0144    1.9181 H         1 <0>         0.0584 
      41 H11        0.4419    0.7643    2.0671 H         1 <0>         0.0702 
      42 H12        0.0484   -1.5775    2.7661 H         1 <0>         0.0872 
      43 H13       -1.7047   -1.3275    2.6170 H         1 <0>         0.0805 
      44 H14       -0.0282   -0.4734    4.8401 H         1 <0>         0.4058 
      45 H15       -2.8570    1.4096    6.1952 H         1 <0>         0.1008 
      46 H16       -1.6584    0.2045    6.7137 H         1 <0>         0.0999 
      47 H17        0.2111    4.5449    6.5106 H         1 <0>         0.1557 
      48 H18        2.3352    5.9325    6.6008 H         1 <0>         0.1929 
      49 H19        2.5770    0.4210    5.5916 H         1 <0>         0.4317 
      50 H20        7.0825    0.2471    5.3045 H         1 <0>         0.1287 
      51 H21        8.0037   -1.9689    4.7096 H         1 <0>         0.1326 
      52 H22        4.0518   -3.6006    4.6083 H         1 <0>         0.1342 
      53 H23        3.1280   -1.4533    5.3090 H         1 <0>         0.1410 
      54 H24        6.0375   -5.0583    4.5132 H         1 <0>         0.0777 
      55 H25        7.6697   -4.3566    4.5513 H         1 <0>         0.0771 
      56 H26        7.3665   -3.5099    2.2520 H         1 <0>         0.0623 
      57 H27        5.7253   -4.1902    2.2127 H         1 <0>         0.0572 
      58 H28        7.1329   -5.2706    2.3103 H         1 <0>         0.0578 
@<TRIPOS>BOND
       1        1        2 1        
       2        1       31 1        
       3        1       32 1        
       4        1       33 1        
       5        2        3 1        
       6        2       34 1        
       7        2       35 1        
       8        3        4 1        
       9        3       36 1        
      10        3       37 1        
      11        4        5 1        
      12        4       38 1        
      13        4       39 1        
      14        5        6 1        
      15        6        7 1        
      16        6       40 1        
      17        6       41 1        
      18        7        8 1        
      19        7       42 1        
      20        7       43 1        
      21        8        9 am       
      22        8       44 1        
      23        9       10 2        
      24        9       11 1        
      25       11       12 1        
      26       11       45 1        
      27       11       46 1        
      28       12       13 1        
      29       13       14 2        
      30       13       15 1        
      31       15       19 2        
      32       15       16 1        
      33       16       17 2        
      34       16       47 1        
      35       17       18 1        
      36       17       48 1        
      37       18       19 1        
      38       19       20 1        
      39       20       21 am       
      40       20       49 1        
      41       21       22 2        
      42       21       23 1        
      43       23       28 ar       
      44       23       24 ar       
      45       24       25 ar       
      46       24       50 1        
      47       25       26 ar       
      48       25       51 1        
      49       26       27 ar       
      50       26       29 1        
      51       27       28 ar       
      52       27       52 1        
      53       28       53 1        
      54       29       30 1        
      55       29       54 1        
      56       29       55 1        
      57       30       56 1        
      58       30       57 1        
      59       30       58 1        

