#        1GCZ_R01_S0001_C0000_L00007_S0001_C0007_G0010_E0001.mol2
#        Tue Jun  6 14:08:01 2017
#        Descriptor:     20    32    10     9    13    14
#        Energy - RMSD - RMSD MassCentre:     -61.2860    999.9999    999.9999
#        Receptor:       1  Surface Point:     1  Conformer:     0
#        Ligand:         7  Surface Point:     1  Conformer:     7
#        BUDE Formal Charge: 0
#        ATOM Count: 51
#        Heavy ATOM Count: 28
@<TRIPOS>MOLECULE
ZINC61408927_1GCZ_R01_S0001_C0000_L00007_S0001_C0007_G0010_E0001
 51 52 0 0 0
SMALL
USER_CHARGES
@<TRIPOS>ATOM
       1 C1         4.0496    1.9211    5.6554 C.3       1 <0>        -0.1139 
       2 C2         2.5845    1.6705    5.3907 C.ar      1 <0>        -0.1278 
       3 C3         2.2157    0.7103    4.4411 C.ar      1 <0>        -0.0331 
       4 C4         0.8726    0.4977    4.1079 C.ar      1 <0>        -0.1443 
       5 C5        -0.1137    1.2479    4.7505 C.ar      1 <0>        -0.0449 
       6 C6         0.2431    2.1795    5.7326 C.ar      1 <0>        -0.1321 
       7 C7         1.5871    2.3819    6.0680 C.ar      1 <0>         0.2027 
       8 N1         1.9147    3.3078    7.0868 N.am      1 <0>        -0.6834 
       9 C8         0.9595    3.8045    7.8675 C.2       1 <0>         0.7034 
      10 O1        -0.2286    3.4533    7.7012 O.2       1 <0>        -0.5648 
      11 N2         1.2689    4.6747    8.8247 N.am      1 <0>        -0.7401 
      12 C9         0.2130    5.2237    9.6876 C.3       1 <0>         0.1407 
      13 C10       -0.8001    5.9819    8.8314 C.3       1 <0>        -0.0859 
      14 C11       -0.1187    7.1537    8.1660 C.ar      1 <0>        -0.1215 
      15 C12       -0.0854    8.4023    8.7983 C.ar      1 <0>        -0.0699 
      16 C13        0.5516    9.4895    8.1882 C.ar      1 <0>        -0.1435 
      17 C14        1.1609    9.3336    6.9429 C.ar      1 <0>         0.1289 
      18 C15        1.1193    8.0924    6.2967 C.ar      1 <0>        -0.2084 
      19 C16        0.4786    7.0082    6.9083 C.ar      1 <0>        -0.0704 
      20 O2         1.8041   10.3925    6.3582 O.3       1 <0>        -0.2897 
      21 C17        1.6505   10.5750    4.9482 C.3       1 <0>         0.0392 
      22 C18        2.4348   11.7888    4.5103 C.2       1 <0>         0.5189 
      23 O3         3.4898   11.6492    3.8933 O.2       1 <0>        -0.5164 
      24 N3         1.9844   13.0081    4.7920 N.am      1 <0>        -0.8500 
      25 C19        0.4949   -0.5035    3.0854 C.2       1 <0>         0.5100 
      26 O4         1.3409   -1.1419    2.5335 O.2       1 <0>        -0.5069 
      27 O5        -0.8054   -0.6949    2.7769 O.3       1 <0>        -0.3499 
      28 C20       -1.1220   -1.6730    1.7829 C.3       1 <0>         0.0344 
      29 H1         4.3518    1.3868    6.5536 H         1 <0>         0.0741 
      30 H2         4.2153    2.9875    5.7940 H         1 <0>         0.0756 
      31 H3         4.6358    1.5694    4.8090 H         1 <0>         0.0654 
      32 H4         2.9754    0.1166    3.9546 H         1 <0>         0.1419 
      33 H5        -1.1539    1.1138    4.4932 H         1 <0>         0.1420 
      34 H6        -0.5207    2.7481    6.2423 H         1 <0>         0.1513 
      35 H7         2.8746    3.5915    7.2212 H         1 <0>         0.4099 
      36 H8         2.2292    4.9577    8.9582 H         1 <0>         0.3991 
      37 H9         0.6554    5.9026   10.4137 H         1 <0>         0.0724 
      38 H10       -0.2878    4.4105   10.2087 H         1 <0>         0.0717 
      39 H11       -1.6093    6.3429    9.4627 H         1 <0>         0.0798 
      40 H12       -1.2021    5.3156    8.0709 H         1 <0>         0.0807 
      41 H13       -0.5531    8.5387    9.7621 H         1 <0>         0.1319 
      42 H14        0.5757   10.4521    8.6774 H         1 <0>         0.1348 
      43 H15        1.5798    7.9809    5.3261 H         1 <0>         0.1287 
      44 H16        0.4492    6.0577    6.3963 H         1 <0>         0.1269 
      45 H17        0.5979   10.7188    4.7143 H         1 <0>         0.0958 
      46 H18        2.0217    9.6951    4.4267 H         1 <0>         0.0955 
      47 H19        1.1182   13.1215    5.2986 H         1 <0>         0.4037 
      48 H20        2.5090   13.8200    4.4991 H         1 <0>         0.4105 
      49 H21       -0.7728   -2.6496    2.1118 H         1 <0>         0.0617 
      50 H22       -2.1994   -1.7033    1.6349 H         1 <0>         0.0616 
      51 H23       -0.6341   -1.4091    0.8470 H         1 <0>         0.1040 
@<TRIPOS>BOND
       1        1        2 1        
       2        1       29 1        
       3        1       30 1        
       4        1       31 1        
       5        2        7 ar       
       6        2        3 ar       
       7        3        4 ar       
       8        3       32 1        
       9        4        5 ar       
      10        4       25 1        
      11        5        6 ar       
      12        5       33 1        
      13        6        7 ar       
      14        6       34 1        
      15        7        8 1        
      16        8        9 am       
      17        8       35 1        
      18        9       10 2        
      19        9       11 am       
      20       11       12 1        
      21       11       36 1        
      22       12       13 1        
      23       12       37 1        
      24       12       38 1        
      25       13       14 1        
      26       13       39 1        
      27       13       40 1        
      28       14       19 ar       
      29       14       15 ar       
      30       15       16 ar       
      31       15       41 1        
      32       16       17 ar       
      33       16       42 1        
      34       17       18 ar       
      35       17       20 1        
      36       18       19 ar       
      37       18       43 1        
      38       19       44 1        
      39       20       21 1        
      40       21       22 1        
      41       21       45 1        
      42       21       46 1        
      43       22       23 2        
      44       22       24 am       
      45       24       47 1        
      46       24       48 1        
      47       25       26 2        
      48       25       27 1        
      49       27       28 1        
      50       28       49 1        
      51       28       50 1        
      52       28       51 1        

