#        1GCZ_R01_S0001_C0000_L00007_S0001_C0008_G0010_E0001.mol2
#        Tue Jun  6 09:56:30 2017
#        Descriptor:     14     3    27    12     8    15
#        Energy - RMSD - RMSD MassCentre:     -61.1712    999.9999    999.9999
#        Receptor:       1  Surface Point:     1  Conformer:     0
#        Ligand:         7  Surface Point:     1  Conformer:     8
#        BUDE Formal Charge: 0
#        ATOM Count: 51
#        Heavy ATOM Count: 28
@<TRIPOS>MOLECULE
ZINC61408927_1GCZ_R01_S0001_C0000_L00007_S0001_C0008_G0010_E0001
 51 52 0 0 0
SMALL
USER_CHARGES
@<TRIPOS>ATOM
       1 C1         0.5543    2.6016    6.4924 C.3       1 <0>        -0.1139 
       2 C2         1.1262    1.7561    5.3799 C.ar      1 <0>        -0.1278 
       3 C3         0.2705    1.2594    4.3896 C.ar      1 <0>        -0.0331 
       4 C4         0.7424    0.4094    3.3822 C.ar      1 <0>        -0.1443 
       5 C5         2.0960    0.0685    3.3600 C.ar      1 <0>        -0.0449 
       6 C6         2.9672    0.5953    4.3208 C.ar      1 <0>        -0.1321 
       7 C7         2.4914    1.4518    5.3208 C.ar      1 <0>         0.2027 
       8 N1         3.4014    1.9936    6.2592 N.am      1 <0>        -0.6834 
       9 C8         4.7112    1.8784    6.0597 C.2       1 <0>         0.7034 
      10 O1         5.1387    1.2910    5.0424 O.2       1 <0>        -0.5648 
      11 N2         5.5654    2.3882    6.9426 N.am      1 <0>        -0.7401 
      12 C9         7.0132    2.2608    6.7220 C.3       1 <0>         0.1407 
      13 C10        7.3919    0.7814    6.6738 C.3       1 <0>        -0.0859 
      14 C11        7.0896    0.1415    8.0077 C.ar      1 <0>        -0.1215 
      15 C12        8.0656    0.1074    9.0109 C.ar      1 <0>        -0.0699 
      16 C13        7.7872   -0.4782   10.2517 C.ar      1 <0>        -0.1435 
      17 C14        6.5302   -1.0315   10.4970 C.ar      1 <0>         0.1289 
      18 C15        5.5534   -1.0152    9.4943 C.ar      1 <0>        -0.2084 
      19 C16        5.8363   -0.4315    8.2536 C.ar      1 <0>        -0.0704 
      20 O2         6.2520   -1.5831   11.7197 O.3       1 <0>        -0.2897 
      21 C17        5.4912   -2.7937   11.7520 C.3       1 <0>         0.0392 
      22 C18        5.2988   -3.2280   13.1853 C.2       1 <0>         0.5189 
      23 O3         4.2036   -3.0891   13.7280 O.2       1 <0>        -0.5164 
      24 N3         6.3135   -3.7606   13.8603 N.am      1 <0>        -0.8500 
      25 C19       -0.1753   -0.1293    2.3536 C.2       1 <0>         0.5100 
      26 O4        -1.3343    0.1605    2.3768 O.2       1 <0>        -0.5069 
      27 O5         0.2977   -0.9477    1.3898 O.3       1 <0>        -0.3499 
      28 C20       -0.6265   -1.4434    0.4176 C.3       1 <0>         0.0344 
      29 H1         0.7257    3.6532    6.2725 H         1 <0>         0.0741 
      30 H2         1.0408    2.3427    7.4305 H         1 <0>         0.0756 
      31 H3        -0.5147    2.4171    6.5744 H         1 <0>         0.0654 
      32 H4        -0.7737    1.5350    4.3945 H         1 <0>         0.1419 
      33 H5         2.4762   -0.6021    2.6037 H         1 <0>         0.1420 
      34 H6         4.0175    0.3456    4.2940 H         1 <0>         0.1513 
      35 H7         3.0561    2.4681    7.0811 H         1 <0>         0.4099 
      36 H8         5.2190    2.8625    7.7642 H         1 <0>         0.3991 
      37 H9         7.5476    2.7462    7.5360 H         1 <0>         0.0724 
      38 H10        7.2788    2.7348    5.7794 H         1 <0>         0.0717 
      39 H11        8.4539    0.6864    6.4576 H         1 <0>         0.0798 
      40 H12        6.8167    0.2856    5.8945 H         1 <0>         0.0807 
      41 H13        9.0435    0.5310    8.8357 H         1 <0>         0.1319 
      42 H14        8.5417   -0.5040   11.0240 H         1 <0>         0.1348 
      43 H15        4.5867   -1.4579    9.6844 H         1 <0>         0.1287 
      44 H16        5.0754   -0.4306    7.4872 H         1 <0>         0.1269 
      45 H17        6.0225   -3.5697   11.2054 H         1 <0>         0.0958 
      46 H18        4.5207   -2.6236   11.2905 H         1 <0>         0.0955 
      47 H19        6.1848   -4.0512   14.8190 H         1 <0>         0.4037 
      48 H20        7.2123   -3.8742   13.4138 H         1 <0>         0.4105 
      49 H21       -1.0647   -0.6079   -0.1245 H         1 <0>         0.0617 
      50 H22       -0.1040   -2.0949   -0.2796 H         1 <0>         0.0616 
      51 H23       -1.4131   -2.0038    0.9185 H         1 <0>         0.1040 
@<TRIPOS>BOND
       1        1        2 1        
       2        1       29 1        
       3        1       30 1        
       4        1       31 1        
       5        2        7 ar       
       6        2        3 ar       
       7        3        4 ar       
       8        3       32 1        
       9        4        5 ar       
      10        4       25 1        
      11        5        6 ar       
      12        5       33 1        
      13        6        7 ar       
      14        6       34 1        
      15        7        8 1        
      16        8        9 am       
      17        8       35 1        
      18        9       10 2        
      19        9       11 am       
      20       11       12 1        
      21       11       36 1        
      22       12       13 1        
      23       12       37 1        
      24       12       38 1        
      25       13       14 1        
      26       13       39 1        
      27       13       40 1        
      28       14       19 ar       
      29       14       15 ar       
      30       15       16 ar       
      31       15       41 1        
      32       16       17 ar       
      33       16       42 1        
      34       17       18 ar       
      35       17       20 1        
      36       18       19 ar       
      37       18       43 1        
      38       19       44 1        
      39       20       21 1        
      40       21       22 1        
      41       21       45 1        
      42       21       46 1        
      43       22       23 2        
      44       22       24 am       
      45       24       47 1        
      46       24       48 1        
      47       25       26 2        
      48       25       27 1        
      49       27       28 1        
      50       28       49 1        
      51       28       50 1        
      52       28       51 1        

