#        1GCZ_R01_S0001_C0000_L00007_S0001_C0009_G0010_E0001.mol2
#        Tue Jun  6 09:56:31 2017
#        Descriptor:     16     2    33     9    10    15
#        Energy - RMSD - RMSD MassCentre:     -61.8594    999.9999    999.9999
#        Receptor:       1  Surface Point:     1  Conformer:     0
#        Ligand:         7  Surface Point:     1  Conformer:     9
#        BUDE Formal Charge: 0
#        ATOM Count: 51
#        Heavy ATOM Count: 28
@<TRIPOS>MOLECULE
ZINC61408927_1GCZ_R01_S0001_C0000_L00007_S0001_C0009_G0010_E0001
 51 52 0 0 0
SMALL
USER_CHARGES
@<TRIPOS>ATOM
       1 C1        -2.7907   -0.0852    5.9840 C.3       1 <0>        -0.1139 
       2 C2        -1.8138    0.5188    5.0040 C.ar      1 <0>        -0.1278 
       3 C3        -1.6851   -0.0473    3.7301 C.ar      1 <0>        -0.0331 
       4 C4        -0.7390    0.4310    2.8157 C.ar      1 <0>        -0.1443 
       5 C5         0.0763    1.5039    3.1803 C.ar      1 <0>        -0.0449 
       6 C6        -0.0753    2.1040    4.4359 C.ar      1 <0>        -0.1321 
       7 C7        -1.0289    1.6272    5.3432 C.ar      1 <0>         0.2027 
       8 N1        -1.1804    2.2742    6.5925 N.am      1 <0>        -0.6834 
       9 C8        -0.5941    3.4479    6.8100 C.2       1 <0>         0.7034 
      10 O1         0.0912    3.9800    5.9101 O.2       1 <0>        -0.5648 
      11 N2        -0.7375    4.0549    7.9849 N.am      1 <0>        -0.7401 
      12 C9        -0.0894    5.3523    8.2252 C.3       1 <0>         0.1407 
      13 C10        1.4243    5.1978    8.0868 C.3       1 <0>        -0.0859 
      14 C11        1.9313    4.2472    9.1449 C.ar      1 <0>        -0.1215 
      15 C12        2.3405    4.7337   10.3923 C.ar      1 <0>        -0.0699 
      16 C13        2.8043    3.8551   11.3788 C.ar      1 <0>        -0.1435 
      17 C14        2.8596    2.4846   11.1240 C.ar      1 <0>         0.1289 
      18 C15        2.4666    1.9912    9.8741 C.ar      1 <0>        -0.2084 
      19 C16        2.0063    2.8730    8.8889 C.ar      1 <0>        -0.0704 
      20 O2         3.2915    1.6241   12.0985 O.3       1 <0>        -0.2897 
      21 C17        4.1368    0.5386   11.7084 C.3       1 <0>         0.0392 
      22 C18        5.4044    1.0840   11.0956 C.2       1 <0>         0.5189 
      23 O3         5.5739    1.0247    9.8788 O.2       1 <0>        -0.5164 
      24 N3         6.3371    1.6283   11.8721 N.am      1 <0>        -0.8500 
      25 C19       -0.5948   -0.1899    1.4800 C.2       1 <0>         0.5100 
      26 O4        -1.2909   -1.1108    1.1712 O.2       1 <0>        -0.5069 
      27 O5         0.3230    0.2847    0.6111 O.3       1 <0>        -0.3499 
      28 C20        0.4259   -0.3472   -0.6677 C.3       1 <0>         0.0344 
      29 H1        -3.7088    0.4984    5.9862 H         1 <0>         0.0741 
      30 H2        -2.3541   -0.0792    6.9806 H         1 <0>         0.0756 
      31 H3        -3.0117   -1.1092    5.6904 H         1 <0>         0.0654 
      32 H4        -2.3260   -0.8664    3.4391 H         1 <0>         0.1419 
      33 H5         0.8263    1.8745    2.4974 H         1 <0>         0.1420 
      34 H6         0.5435    2.9450    4.7121 H         1 <0>         0.1513 
      35 H7        -1.7341    1.8443    7.3196 H         1 <0>         0.4099 
      36 H8        -1.2914    3.6241    8.7112 H         1 <0>         0.3991 
      37 H9        -0.3292    5.6963    9.2292 H         1 <0>         0.0724 
      38 H10       -0.4489    6.0767    7.4974 H         1 <0>         0.0717 
      39 H11        1.9001    6.1682    8.2121 H         1 <0>         0.0798 
      40 H12        1.6592    4.8025    7.1007 H         1 <0>         0.0807 
      41 H13        2.3041    5.7920   10.6042 H         1 <0>         0.1319 
      42 H14        3.1200    4.2324   12.3402 H         1 <0>         0.1348 
      43 H15        2.5252    0.9309    9.6770 H         1 <0>         0.1287 
      44 H16        1.7115    2.4796    7.9273 H         1 <0>         0.1269 
      45 H17        3.6180   -0.0803   10.9792 H         1 <0>         0.0958 
      46 H18        4.3841   -0.0600   12.5825 H         1 <0>         0.0955 
      47 H19        6.1968    1.6765   12.8711 H         1 <0>         0.4037 
      48 H20        7.1849    1.9932   11.4623 H         1 <0>         0.4105 
      49 H21       -0.5218   -0.2550   -1.1943 H         1 <0>         0.0617 
      50 H22        1.2116    0.1333   -1.2468 H         1 <0>         0.0616 
      51 H23        0.6658   -1.3998   -0.5331 H         1 <0>         0.1040 
@<TRIPOS>BOND
       1        1        2 1        
       2        1       29 1        
       3        1       30 1        
       4        1       31 1        
       5        2        7 ar       
       6        2        3 ar       
       7        3        4 ar       
       8        3       32 1        
       9        4        5 ar       
      10        4       25 1        
      11        5        6 ar       
      12        5       33 1        
      13        6        7 ar       
      14        6       34 1        
      15        7        8 1        
      16        8        9 am       
      17        8       35 1        
      18        9       10 2        
      19        9       11 am       
      20       11       12 1        
      21       11       36 1        
      22       12       13 1        
      23       12       37 1        
      24       12       38 1        
      25       13       14 1        
      26       13       39 1        
      27       13       40 1        
      28       14       19 ar       
      29       14       15 ar       
      30       15       16 ar       
      31       15       41 1        
      32       16       17 ar       
      33       16       42 1        
      34       17       18 ar       
      35       17       20 1        
      36       18       19 ar       
      37       18       43 1        
      38       19       44 1        
      39       20       21 1        
      40       21       22 1        
      41       21       45 1        
      42       21       46 1        
      43       22       23 2        
      44       22       24 am       
      45       24       47 1        
      46       24       48 1        
      47       25       26 2        
      48       25       27 1        
      49       27       28 1        
      50       28       49 1        
      51       28       50 1        
      52       28       51 1        

