#        1GCZ_R01_S0001_C0000_L00007_S0001_C0010_G0010_E0001.mol2
#        Tue Jun  6 14:08:07 2017
#        Descriptor:     32    26    22     7     5    15
#        Energy - RMSD - RMSD MassCentre:     -66.0541    999.9999    999.9999
#        Receptor:       1  Surface Point:     1  Conformer:     0
#        Ligand:         7  Surface Point:     1  Conformer:    10
#        BUDE Formal Charge: 0
#        ATOM Count: 51
#        Heavy ATOM Count: 28
@<TRIPOS>MOLECULE
ZINC61408927_1GCZ_R01_S0001_C0000_L00007_S0001_C0010_G0010_E0001
 51 52 0 0 0
SMALL
USER_CHARGES
@<TRIPOS>ATOM
       1 C1         1.7721   -5.2982    9.6044 C.3       1 <0>        -0.1139 
       2 C2         0.3822   -5.7180    9.1904 C.ar      1 <0>        -0.1278 
       3 C3         0.0892   -7.0809    9.0623 C.ar      1 <0>        -0.0331 
       4 C4        -1.1620   -7.5147    8.6081 C.ar      1 <0>        -0.1443 
       5 C5        -2.1373   -6.5662    8.2953 C.ar      1 <0>        -0.0449 
       6 C6        -1.8677   -5.2027    8.4618 C.ar      1 <0>        -0.1321 
       7 C7        -0.6176   -4.7749    8.9246 C.ar      1 <0>         0.2027 
       8 N1        -0.3851   -3.3917    9.1128 N.am      1 <0>        -0.6834 
       9 C8        -1.4008   -2.5342    9.0728 C.2       1 <0>         0.7034 
      10 O1        -2.5618   -2.9504    8.8688 O.2       1 <0>        -0.5648 
      11 N2        -1.1808   -1.2345    9.2498 N.am      1 <0>        -0.7401 
      12 C9        -2.3036   -0.2867    9.2056 C.3       1 <0>         0.1407 
      13 C10       -2.9693   -0.3510    7.8319 C.3       1 <0>        -0.0859 
      14 C11       -1.9824    0.0825    6.7744 C.ar      1 <0>        -0.1215 
      15 C12       -1.8966    1.4286    6.3992 C.ar      1 <0>        -0.0699 
      16 C13       -0.9779    1.8361    5.4245 C.ar      1 <0>        -0.1435 
      17 C14       -0.1382    0.8998    4.8207 C.ar      1 <0>         0.1289 
      18 C15       -0.2278   -0.4507    5.1789 C.ar      1 <0>        -0.2084 
      19 C16       -1.1499   -0.8550    6.1518 C.ar      1 <0>        -0.0704 
      20 O2         0.7762    1.3039    3.8841 O.3       1 <0>        -0.2897 
      21 C17        0.9713    0.4745    2.7356 C.3       1 <0>         0.0392 
      22 C18       -0.3266    0.3593    1.9727 C.2       1 <0>         0.5189 
      23 O3        -0.9774   -0.6834    2.0208 O.2       1 <0>        -0.5164 
      24 N3        -0.7654    1.3854    1.2490 N.am      1 <0>        -0.8500 
      25 C19       -1.4536   -8.9574    8.4537 C.2       1 <0>         0.5100 
      26 O4        -0.6160   -9.7676    8.7181 O.2       1 <0>        -0.5069 
      27 O5        -2.6659   -9.3572    8.0143 O.3       1 <0>        -0.3499 
      28 C20       -2.9015  -10.7614    7.8810 C.3       1 <0>         0.0344 
      29 H1         1.7792   -5.0685   10.6677 H         1 <0>         0.0741 
      30 H2         2.0670   -4.4158    9.0402 H         1 <0>         0.0756 
      31 H3         2.4700   -6.1081    9.4030 H         1 <0>         0.0654 
      32 H4         0.8362   -7.8173    9.3196 H         1 <0>         0.1419 
      33 H5        -3.1018   -6.8792    7.9239 H         1 <0>         0.1420 
      34 H6        -2.6275   -4.4692    8.2363 H         1 <0>         0.1513 
      35 H7         0.5529   -3.0555    9.2776 H         1 <0>         0.4099 
      36 H8        -0.2424   -0.8994    9.4145 H         1 <0>         0.3991 
      37 H9        -1.9339    0.7211    9.3833 H         1 <0>         0.0724 
      38 H10       -3.0286   -0.5484    9.9734 H         1 <0>         0.0717 
      39 H11       -3.8324    0.3111    7.8165 H         1 <0>         0.0798 
      40 H12       -3.2904   -1.3713    7.6325 H         1 <0>         0.0807 
      41 H13       -2.5403    2.1650    6.8572 H         1 <0>         0.1319 
      42 H14       -0.9137    2.8749    5.1361 H         1 <0>         0.1348 
      43 H15        0.4143   -1.1736    4.6979 H         1 <0>         0.1287 
      44 H16       -1.2123   -1.9007    6.4148 H         1 <0>         0.1269 
      45 H17        1.2946   -0.5144    3.0538 H         1 <0>         0.0958 
      46 H18        1.7314    0.9164    2.0948 H         1 <0>         0.0955 
      47 H19       -1.6335    1.3083    0.7388 H         1 <0>         0.4037 
      48 H20       -0.2302    2.2410    1.2102 H         1 <0>         0.4105 
      49 H21       -2.7912  -11.2408    8.8515 H         1 <0>         0.0617 
      50 H22       -3.9100  -10.9255    7.5073 H         1 <0>         0.0616 
      51 H23       -2.1822  -11.1846    7.1831 H         1 <0>         0.1040 
@<TRIPOS>BOND
       1        1        2 1        
       2        1       29 1        
       3        1       30 1        
       4        1       31 1        
       5        2        7 ar       
       6        2        3 ar       
       7        3        4 ar       
       8        3       32 1        
       9        4        5 ar       
      10        4       25 1        
      11        5        6 ar       
      12        5       33 1        
      13        6        7 ar       
      14        6       34 1        
      15        7        8 1        
      16        8        9 am       
      17        8       35 1        
      18        9       10 2        
      19        9       11 am       
      20       11       12 1        
      21       11       36 1        
      22       12       13 1        
      23       12       37 1        
      24       12       38 1        
      25       13       14 1        
      26       13       39 1        
      27       13       40 1        
      28       14       19 ar       
      29       14       15 ar       
      30       15       16 ar       
      31       15       41 1        
      32       16       17 ar       
      33       16       42 1        
      34       17       18 ar       
      35       17       20 1        
      36       18       19 ar       
      37       18       43 1        
      38       19       44 1        
      39       20       21 1        
      40       21       22 1        
      41       21       45 1        
      42       21       46 1        
      43       22       23 2        
      44       22       24 am       
      45       24       47 1        
      46       24       48 1        
      47       25       26 2        
      48       25       27 1        
      49       27       28 1        
      50       28       49 1        
      51       28       50 1        
      52       28       51 1        

