#        1GCZ_R01_S0001_C0000_L00007_S0001_C0011_G0010_E0001.mol2
#        Tue Jun  6 09:56:32 2017
#        Descriptor:     30    16    10    14     8    15
#        Energy - RMSD - RMSD MassCentre:     -61.0569    999.9999    999.9999
#        Receptor:       1  Surface Point:     1  Conformer:     0
#        Ligand:         7  Surface Point:     1  Conformer:    11
#        BUDE Formal Charge: 0
#        ATOM Count: 51
#        Heavy ATOM Count: 28
@<TRIPOS>MOLECULE
ZINC61408927_1GCZ_R01_S0001_C0000_L00007_S0001_C0011_G0010_E0001
 51 52 0 0 0
SMALL
USER_CHARGES
@<TRIPOS>ATOM
       1 C1         2.6789    2.4083    7.8827 C.3       1 <0>        -0.1139 
       2 C2         2.8589    1.7518    6.5351 C.ar      1 <0>        -0.1278 
       3 C3         1.7282    1.3552    5.8113 C.ar      1 <0>        -0.0331 
       4 C4         1.8479    0.6749    4.5935 C.ar      1 <0>        -0.1443 
       5 C5         3.1210    0.4057    4.0881 C.ar      1 <0>        -0.0449 
       6 C6         4.2567    0.8369    4.7837 C.ar      1 <0>        -0.1321 
       7 C7         4.1310    1.5243    5.9968 C.ar      1 <0>         0.2027 
       8 N1         5.2962    1.9753    6.6612 N.am      1 <0>        -0.6834 
       9 C8         6.4702    1.9515    6.0367 C.2       1 <0>         0.7034 
      10 O1         6.5443    1.5305    4.8621 O.2       1 <0>        -0.5648 
      11 N2         7.5646    2.3758    6.6625 N.am      1 <0>        -0.7401 
      12 C9         8.8621    2.3494    5.9722 C.3       1 <0>         0.1407 
      13 C10        9.2058    0.9105    5.5904 C.3       1 <0>        -0.0859 
      14 C11        9.3539    0.0800    6.8428 C.ar      1 <0>        -0.1215 
      15 C12       10.6029   -0.0445    7.4629 C.ar      1 <0>        -0.0699 
      16 C13       10.7434   -0.8075    8.6282 C.ar      1 <0>        -0.1435 
      17 C14        9.6348   -1.4489    9.1814 C.ar      1 <0>         0.1289 
      18 C15        8.3851   -1.3421    8.5595 C.ar      1 <0>        -0.2084 
      19 C16        8.2490   -0.5808    7.3924 C.ar      1 <0>        -0.0704 
      20 O2         9.7694   -2.1757   10.3348 O.3       1 <0>        -0.2897 
      21 C17        9.0614   -3.4143   10.4337 C.3       1 <0>         0.0392 
      22 C18        9.3455   -4.0499   11.7736 C.2       1 <0>         0.5189 
      23 O3         8.4859   -4.0394   12.6535 O.2       1 <0>        -0.5164 
      24 N3        10.5249   -4.6207   12.0016 N.am      1 <0>        -0.8500 
      25 C19        0.6462    0.2391    3.8477 C.2       1 <0>         0.5100 
      26 O4         0.7655   -0.3406    2.8095 O.2       1 <0>        -0.5069 
      27 O5        -0.5839    0.4966    4.3405 O.3       1 <0>        -0.3499 
      28 C20       -1.7151    0.0561    3.5846 C.3       1 <0>         0.0344 
      29 H1         2.7687    3.4871    7.7748 H         1 <0>         0.0741 
      30 H2         3.4440    2.0468    8.5666 H         1 <0>         0.0756 
      31 H3         1.6947    2.1632    8.2763 H         1 <0>         0.0654 
      32 H4         0.7421    1.5770    6.1915 H         1 <0>         0.1419 
      33 H5         3.2354   -0.1358    3.1608 H         1 <0>         0.1420 
      34 H6         5.2416    0.6439    4.3848 H         1 <0>         0.1513 
      35 H7         5.2363    2.3155    7.6102 H         1 <0>         0.4099 
      36 H8         7.5035    2.7157    7.6115 H         1 <0>         0.3991 
      37 H9         9.6317    2.7437    6.6327 H         1 <0>         0.0724 
      38 H10        8.8066    2.9605    5.0738 H         1 <0>         0.0717 
      39 H11       10.1400    0.8971    5.0331 H         1 <0>         0.0798 
      40 H12        8.4090    0.4993    4.9741 H         1 <0>         0.0807 
      41 H13       11.4705    0.4455    7.0462 H         1 <0>         0.1319 
      42 H14       11.7079   -0.9028    9.1047 H         1 <0>         0.1348 
      43 H15        7.5330   -1.8525    8.9837 H         1 <0>         0.1287 
      44 H16        7.2803   -0.5113    6.9199 H         1 <0>         0.1269 
      45 H17        9.3869   -4.0817    9.6387 H         1 <0>         0.0958 
      46 H18        7.9934   -3.2294   10.3384 H         1 <0>         0.0955 
      47 H19       10.7150   -5.0459   12.8978 H         1 <0>         0.4037 
      48 H20       11.2299   -4.6288   11.2785 H         1 <0>         0.4105 
      49 H21       -1.6831   -1.0266    3.4826 H         1 <0>         0.0617 
      50 H22       -2.6291    0.3457    4.0987 H         1 <0>         0.0616 
      51 H23       -1.6923    0.5147    2.5983 H         1 <0>         0.1040 
@<TRIPOS>BOND
       1        1        2 1        
       2        1       29 1        
       3        1       30 1        
       4        1       31 1        
       5        2        7 ar       
       6        2        3 ar       
       7        3        4 ar       
       8        3       32 1        
       9        4        5 ar       
      10        4       25 1        
      11        5        6 ar       
      12        5       33 1        
      13        6        7 ar       
      14        6       34 1        
      15        7        8 1        
      16        8        9 am       
      17        8       35 1        
      18        9       10 2        
      19        9       11 am       
      20       11       12 1        
      21       11       36 1        
      22       12       13 1        
      23       12       37 1        
      24       12       38 1        
      25       13       14 1        
      26       13       39 1        
      27       13       40 1        
      28       14       19 ar       
      29       14       15 ar       
      30       15       16 ar       
      31       15       41 1        
      32       16       17 ar       
      33       16       42 1        
      34       17       18 ar       
      35       17       20 1        
      36       18       19 ar       
      37       18       43 1        
      38       19       44 1        
      39       20       21 1        
      40       21       22 1        
      41       21       45 1        
      42       21       46 1        
      43       22       23 2        
      44       22       24 am       
      45       24       47 1        
      46       24       48 1        
      47       25       26 2        
      48       25       27 1        
      49       27       28 1        
      50       28       49 1        
      51       28       50 1        
      52       28       51 1        

