#        1GCZ_R01_S0001_C0000_L00003_S0001_C0002_G0010_E0001.mol2
#        Tue Jun  6 14:03:29 2017
#        Descriptor:     29    28     5    10     8    11
#        Energy - RMSD - RMSD MassCentre:     -64.6323    999.9999    999.9999
#        Receptor:       1  Surface Point:     1  Conformer:     0
#        Ligand:         3  Surface Point:     1  Conformer:     2
#        BUDE Formal Charge: 0
#        ATOM Count: 58
#        Heavy ATOM Count: 30
@<TRIPOS>MOLECULE
ZINC61580633_1GCZ_R01_S0001_C0000_L00003_S0001_C0002_G0010_E0001
 58 59 0 0 0
SMALL
USER_CHARGES
@<TRIPOS>ATOM
       1 C1         0.8084    1.2248   -4.3723 C.3       1 <0>        -0.1532 
       2 C2         0.5123    1.6523   -2.9377 C.3       1 <0>        -0.1224 
       3 C3         0.3525    0.4115   -2.0601 C.3       1 <0>        -0.1198 
       4 C4         0.0560    0.8397   -0.6235 C.3       1 <0>         0.0610 
       5 O1        -0.0935   -0.3215    0.1977 O.3       1 <0>        -0.3878 
       6 C5        -0.3733    0.0184    1.5582 C.3       1 <0>         0.0487 
       7 C6        -0.5217   -1.2603    2.3815 C.3       1 <0>         0.1244 
       8 N1        -0.8092   -0.9109    3.7800 N.am      1 <0>        -0.7216 
       9 C7        -2.0011   -0.4224    4.1114 C.2       1 <0>         0.5161 
      10 O2        -2.8628   -0.2627    3.2485 O.2       1 <0>        -0.5151 
      11 C8        -2.2966   -0.0635    5.5481 C.3       1 <0>         0.0490 
      12 O3        -1.5355    1.0896    5.9166 O.3       1 <0>        -0.3194 
      13 C9        -0.1893    0.9907    5.9032 C.2       1 <0>         0.5417 
      14 O4         0.3429   -0.0595    5.5834 O.2       1 <0>        -0.5337 
      15 C10        0.6417    2.1569    6.2767 C.2       1 <0>        -0.2559 
      16 C11        0.1012    3.4784    6.6666 C.2       1 <0>        -0.0791 
      17 C12        1.0644    4.3608    6.9420 C.2       1 <0>        -0.2585 
      18 S1         2.6874    3.6780    6.7623 S.3       1 <0>         0.3028 
      19 C13        1.9813    2.1270    6.2846 C.2       1 <0>         0.0893 
      20 N2         2.6880    1.0037    5.9442 N.am      1 <0>        -0.6099 
      21 C14        4.0177    1.0213    5.9667 C.2       1 <0>         0.5551 
      22 O5         4.6134    2.0466    6.2935 O.2       1 <0>        -0.4939 
      23 C15        4.7795   -0.1930    5.5988 C.ar      1 <0>        -0.1466 
      24 C16        6.1777   -0.1293    5.6332 C.ar      1 <0>        -0.0772 
      25 C17        6.9532   -1.2212    5.2256 C.ar      1 <0>        -0.1241 
      26 C18        6.3443   -2.3947    4.7659 C.ar      1 <0>        -0.0446 
      27 C19        4.9470   -2.4804    4.7805 C.ar      1 <0>        -0.1261 
      28 C20        4.1754   -1.3967    5.2165 C.ar      1 <0>        -0.0460 
      29 C21        7.1981   -3.5383    4.2723 C.3       1 <0>        -0.0928 
      30 C22        7.4379   -3.3827    2.7734 C.3       1 <0>        -0.1485 
      31 H1        -0.0201    0.6298   -4.7510 H         1 <0>         0.0567 
      32 H2         1.7204    0.6320   -4.3926 H         1 <0>         0.0554 
      33 H3         0.9354    2.1083   -4.9943 H         1 <0>         0.0557 
      34 H4         1.3345    2.2578   -2.5620 H         1 <0>         0.0632 
      35 H5        -0.4072    2.2334   -2.9140 H         1 <0>         0.0635 
      36 H6        -0.4698   -0.1944   -2.4342 H         1 <0>         0.0711 
      37 H7         1.2719   -0.1699   -2.0823 H         1 <0>         0.0704 
      38 H8         0.8782    1.4452   -0.2479 H         1 <0>         0.0498 
      39 H9        -0.8636    1.4206   -0.6000 H         1 <0>         0.0505 
      40 H10       -1.2978    0.5899    1.6073 H         1 <0>         0.0584 
      41 H11        0.4439    0.6144    1.9593 H         1 <0>         0.0702 
      42 H12        0.4025   -1.8322    2.3340 H         1 <0>         0.0872 
      43 H13       -1.3391   -1.8568    1.9818 H         1 <0>         0.0805 
      44 H14       -0.1024   -1.0416    4.4895 H         1 <0>         0.4058 
      45 H15       -3.3572    0.1525    5.6579 H         1 <0>         0.1008 
      46 H16       -2.0267   -0.8968    6.1935 H         1 <0>         0.0999 
      47 H17       -0.9580    3.6802    6.7266 H         1 <0>         0.1557 
      48 H18        0.8583    5.3742    7.2529 H         1 <0>         0.1929 
      49 H19        2.1989    0.1618    5.6760 H         1 <0>         0.4317 
      50 H20        6.6656    0.7722    5.9732 H         1 <0>         0.1287 
      51 H21        8.0310   -1.1626    5.2625 H         1 <0>         0.1326 
      52 H22        4.4736   -3.3949    4.4549 H         1 <0>         0.1342 
      53 H23        3.1061   -1.5416    5.2618 H         1 <0>         0.1410 
      54 H24        6.6872   -4.4798    4.4627 H         1 <0>         0.0777 
      55 H25        8.1518   -3.5302    4.7956 H         1 <0>         0.0771 
      56 H26        7.9598   -2.4468    2.5855 H         1 <0>         0.0623 
      57 H27        6.4826   -3.3768    2.2525 H         1 <0>         0.0572 
      58 H28        8.0418   -4.2138    2.4153 H         1 <0>         0.0578 
@<TRIPOS>BOND
       1        1        2 1        
       2        1       31 1        
       3        1       32 1        
       4        1       33 1        
       5        2        3 1        
       6        2       34 1        
       7        2       35 1        
       8        3        4 1        
       9        3       36 1        
      10        3       37 1        
      11        4        5 1        
      12        4       38 1        
      13        4       39 1        
      14        5        6 1        
      15        6        7 1        
      16        6       40 1        
      17        6       41 1        
      18        7        8 1        
      19        7       42 1        
      20        7       43 1        
      21        8        9 am       
      22        8       44 1        
      23        9       10 2        
      24        9       11 1        
      25       11       12 1        
      26       11       45 1        
      27       11       46 1        
      28       12       13 1        
      29       13       14 2        
      30       13       15 1        
      31       15       19 2        
      32       15       16 1        
      33       16       17 2        
      34       16       47 1        
      35       17       18 1        
      36       17       48 1        
      37       18       19 1        
      38       19       20 1        
      39       20       21 am       
      40       20       49 1        
      41       21       22 2        
      42       21       23 1        
      43       23       28 ar       
      44       23       24 ar       
      45       24       25 ar       
      46       24       50 1        
      47       25       26 ar       
      48       25       51 1        
      49       26       27 ar       
      50       26       29 1        
      51       27       28 ar       
      52       27       52 1        
      53       28       53 1        
      54       29       30 1        
      55       29       54 1        
      56       29       55 1        
      57       30       56 1        
      58       30       57 1        
      59       30       58 1        

