#        1GCZ_R01_S0001_C0000_L00001_S0001_C0002_G0010_E0001.mol2
#        Tue Jun  6 09:54:29 2017
#        Descriptor:     16    26    27     8     8     6
#        Energy - RMSD - RMSD MassCentre:     -84.9814    999.9999    999.9999
#        Receptor:       1  Surface Point:     1  Conformer:     0
#        Ligand:         1  Surface Point:     1  Conformer:     2
#        BUDE Formal Charge: 0
#        ATOM Count: 27
#        Heavy ATOM Count: 17
@<TRIPOS>MOLECULE
pdb1gcz_ligA.pdb_1GCZ_R01_S0001_C0000_L00001_S0001_C0002_G0010_E0001
27 28 1 0 0
SMALL
GASTEIGER
@<TRIPOS>ATOM
       1 C3        -0.3805   -0.4770    5.3670 C.3       1 YZ9900      0.0513 
       2 C11       -0.7023    0.6728    4.4168 C.3       1 YZ9900      0.2089 
       3 O1        -1.0883    2.2456    2.3458 O.2       1 YZ9900     -0.2447 
       4 O2        -0.4671    0.2564    3.0691 O.3       1 YZ9900     -0.4453 
       5 C6        -0.6829    2.1097   -2.7834 C.ar      1 YZ9900      0.0063 
       6 C5        -0.6921    1.6272   -0.3268 C.ar      1 YZ9900      0.0160 
       7 C4         0.2257   -0.4667   -3.3291 C.ar      1 YZ9900      0.0796 
       8 O3         0.2363   -0.9865   -0.9756 O.2       1 YZ9900     -0.4208 
       9 C2        -0.4557    1.2184   -1.7294 C.ar      1 YZ9900      0.0353 
      10 C1         0.0009   -0.0763   -2.0036 C.ar      1 YZ9900      0.1519 
      11 C7         0.0123   -0.5969    0.3428 C.ar      1 YZ9900      0.3521 
      12 C12       -0.6988    1.1473    2.0815 C.2       1 YZ9900      0.3476 
      13 O4         0.2342   -0.0067   -5.6682 O.3       1 YZ9900     -0.2865 
      14 O5         0.2246   -1.4093    1.2279 O.2       1 YZ9900     -0.2442 
      15 C10       -0.4564    1.7141   -4.1071 C.ar      1 YZ9900      0.0422 
      16 C9        -0.4701    0.7632    0.6707 C.ar      1 YZ9900      0.1515 
      17 C8         0.0001    0.4209   -4.3879 C.ar      1 YZ9900      0.1988 
      18 H31        0.6669   -0.7521    5.2608 H         1 YZ9900      0.0000 
      19 H32       -0.5721   -0.1645    6.3913 H         1 YZ9900      0.0000 
      20 H33       -1.0072   -1.3328    5.1250 H         1 YZ9900      0.0000 
      21 H112      -0.0663    1.5246    4.6487 H         1 YZ9900      0.0000 
      22 H113      -1.7462    0.9572    4.5309 H         1 YZ9900      0.0000 
      23 H6        -1.0351    3.1101   -2.5794 H         1 YZ9900      0.0000 
      24 H5        -1.0443    2.6282   -0.1257 H         1 YZ9900      0.0000 
      25 H4         0.5779   -1.4667   -3.5357 H         1 YZ9900      0.0000 
      26 HO4        0.5619   -0.9197   -5.6750 H         1 YZ9900      0.0000 
      27 H10       -0.6396    2.4214   -4.9024 H         1 YZ9900      0.0000 
@<TRIPOS>BOND
       1       13       17 1        
       2        7       17 ar       
       3        7       10 ar       
       4        8       10 ar       
       5        8       11 ar       
       6       14       11 2        
       7       17       15 ar       
       8       10        9 ar       
       9       11       16 ar       
      10        2        4 1        
      11        2        1 1        
      12       15        5 ar       
      13        9        5 ar       
      14        9        6 ar       
      15       16        6 ar       
      16       16       12 1        
      17        4       12 1        
      18       12        3 2        
      19       18        1 1        
      20       19        1 1        
      21       20        1 1        
      22       21        2 1        
      23       22        2 1        
      24       23        5 1        
      25       24        6 1        
      26       25        7 1        
      27       26       13 1        
      28       27       15 1        
@<TRIPOS>SUBSTRUCTURE
 1 YZ9900 10 RESIDUE 4 A YZ9900 0 ROOT

