#        1GCZ_R01_S0001_C0000_L00007_S0001_C0012_G0010_E0001.mol2
#        Tue Jun  6 14:08:11 2017
#        Descriptor:     27    19    17     9     6    15
#        Energy - RMSD - RMSD MassCentre:     -60.4396    999.9999    999.9999
#        Receptor:       1  Surface Point:     1  Conformer:     0
#        Ligand:         7  Surface Point:     1  Conformer:    12
#        BUDE Formal Charge: 0
#        ATOM Count: 51
#        Heavy ATOM Count: 28
@<TRIPOS>MOLECULE
ZINC61408927_1GCZ_R01_S0001_C0000_L00007_S0001_C0012_G0010_E0001
 51 52 0 0 0
SMALL
USER_CHARGES
@<TRIPOS>ATOM
       1 C1        -1.1475   -3.1966   10.4007 C.3       1 <0>        -0.1139 
       2 C2        -1.3247   -3.8703    9.0613 C.ar      1 <0>        -0.1278 
       3 C3        -1.6399   -5.2336    9.0180 C.ar      1 <0>        -0.0331 
       4 C4        -1.7387   -5.9173    7.8003 C.ar      1 <0>        -0.1443 
       5 C5        -1.5355   -5.2173    6.6098 C.ar      1 <0>        -0.0449 
       6 C6        -1.2629   -3.8446    6.6418 C.ar      1 <0>        -0.1321 
       7 C7        -1.1736   -3.1641    7.8620 C.ar      1 <0>         0.2027 
       8 N1        -0.9280   -1.7705    7.8614 N.am      1 <0>        -0.6834 
       9 C8        -1.0094   -1.0805    6.7274 C.2       1 <0>         0.7034 
      10 O1        -1.3030   -1.6635    5.6614 O.2       1 <0>        -0.5648 
      11 N2        -0.7782    0.2294    6.7284 N.am      1 <0>        -0.7401 
      12 C9        -0.8682    0.9920    5.4749 C.3       1 <0>         0.1407 
      13 C10        0.1538    0.4511    4.4763 C.3       1 <0>        -0.0859 
      14 C11        1.5469    0.6579    5.0211 C.ar      1 <0>        -0.1215 
      15 C12        2.2500    1.8335    4.7317 C.ar      1 <0>        -0.0699 
      16 C13        3.5389    2.0326    5.2407 C.ar      1 <0>        -0.1435 
      17 C14        4.1313    1.0578    6.0439 C.ar      1 <0>         0.1289 
      18 C15        3.4414   -0.1273    6.3258 C.ar      1 <0>        -0.2084 
      19 C16        2.1538   -0.3244    5.8125 C.ar      1 <0>        -0.0704 
      20 O2         5.3832    1.2646    6.5604 O.3       1 <0>        -0.2897 
      21 C17        6.2901    0.1591    6.5840 C.3       1 <0>         0.0392 
      22 C18        7.6025    0.5987    7.1877 C.2       1 <0>         0.5189 
      23 O3         7.9012    0.2507    8.3292 O.2       1 <0>        -0.5164 
      24 N3         8.4347    1.3617    6.4849 N.am      1 <0>        -0.8500 
      25 C19       -2.0491   -7.3640    7.7665 C.2       1 <0>         0.5100 
      26 O4        -2.1300   -7.9330    6.7188 O.2       1 <0>        -0.5069 
      27 O5        -2.2408   -8.0399    8.9192 O.3       1 <0>        -0.3499 
      28 C20       -2.5384   -9.4362    8.8366 C.3       1 <0>         0.0344 
      29 H1        -2.0592   -2.6630   10.6610 H         1 <0>         0.0741 
      30 H2        -0.3186   -2.4939   10.3457 H         1 <0>         0.0756 
      31 H3        -0.9372   -3.9479   11.1589 H         1 <0>         0.0654 
      32 H4        -1.8142   -5.7740    9.9367 H         1 <0>         0.1419 
      33 H5        -1.5870   -5.7303    5.6609 H         1 <0>         0.1420 
      34 H6        -1.1224   -3.2990    5.7204 H         1 <0>         0.1513 
      35 H7        -0.6908   -1.2996    8.7227 H         1 <0>         0.4099 
      36 H8        -0.5411    0.6993    7.5903 H         1 <0>         0.3991 
      37 H9        -0.6613    2.0415    5.6740 H         1 <0>         0.0724 
      38 H10       -1.8693    0.8913    5.0610 H         1 <0>         0.0717 
      39 H11        0.0512    0.9798    3.5310 H         1 <0>         0.0798 
      40 H12       -0.0207   -0.6114    4.3192 H         1 <0>         0.0807 
      41 H13        1.8049    2.5970    4.1109 H         1 <0>         0.1319 
      42 H14        4.0798    2.9399    5.0158 H         1 <0>         0.1348 
      43 H15        3.9103   -0.8850    6.9361 H         1 <0>         0.1287 
      44 H16        1.6350   -1.2455    6.0333 H         1 <0>         0.1269 
      45 H17        6.4573   -0.1937    5.5687 H         1 <0>         0.0958 
      46 H18        5.8659   -0.6444    7.1826 H         1 <0>         0.0955 
      47 H19        8.1885    1.6468    5.5479 H         1 <0>         0.4037 
      48 H20        9.3126    1.6558    6.8887 H         1 <0>         0.4105 
      49 H21       -1.7142   -9.9539    8.3504 H         1 <0>         0.0617 
      50 H22       -2.6784   -9.8365    9.8385 H         1 <0>         0.0616 
      51 H23       -3.4487   -9.5787    8.2581 H         1 <0>         0.1040 
@<TRIPOS>BOND
       1        1        2 1        
       2        1       29 1        
       3        1       30 1        
       4        1       31 1        
       5        2        7 ar       
       6        2        3 ar       
       7        3        4 ar       
       8        3       32 1        
       9        4        5 ar       
      10        4       25 1        
      11        5        6 ar       
      12        5       33 1        
      13        6        7 ar       
      14        6       34 1        
      15        7        8 1        
      16        8        9 am       
      17        8       35 1        
      18        9       10 2        
      19        9       11 am       
      20       11       12 1        
      21       11       36 1        
      22       12       13 1        
      23       12       37 1        
      24       12       38 1        
      25       13       14 1        
      26       13       39 1        
      27       13       40 1        
      28       14       19 ar       
      29       14       15 ar       
      30       15       16 ar       
      31       15       41 1        
      32       16       17 ar       
      33       16       42 1        
      34       17       18 ar       
      35       17       20 1        
      36       18       19 ar       
      37       18       43 1        
      38       19       44 1        
      39       20       21 1        
      40       21       22 1        
      41       21       45 1        
      42       21       46 1        
      43       22       23 2        
      44       22       24 am       
      45       24       47 1        
      46       24       48 1        
      47       25       26 2        
      48       25       27 1        
      49       27       28 1        
      50       28       49 1        
      51       28       50 1        
      52       28       51 1        

