#        1GCZ_R01_S0001_C0000_L00007_S0001_C0014_G0010_E0001.mol2
#        Tue Jun  6 09:56:35 2017
#        Descriptor:     29     3    11    14     7    13
#        Energy - RMSD - RMSD MassCentre:     -60.0048    999.9999    999.9999
#        Receptor:       1  Surface Point:     1  Conformer:     0
#        Ligand:         7  Surface Point:     1  Conformer:    14
#        BUDE Formal Charge: 0
#        ATOM Count: 51
#        Heavy ATOM Count: 28
@<TRIPOS>MOLECULE
ZINC61408927_1GCZ_R01_S0001_C0000_L00007_S0001_C0014_G0010_E0001
 51 52 0 0 0
SMALL
USER_CHARGES
@<TRIPOS>ATOM
       1 C1         2.5787    0.7206    3.6394 C.3       1 <0>        -0.1139 
       2 C2         2.5948    0.0978    5.0147 C.ar      1 <0>        -0.1278 
       3 C3         1.4887   -0.6467    5.4412 C.ar      1 <0>        -0.0331 
       4 C4         1.4268   -1.1784    6.7348 C.ar      1 <0>        -0.1443 
       5 C5         2.4988   -0.9739    7.6052 C.ar      1 <0>        -0.0449 
       6 C6         3.6277   -0.2678    7.1729 C.ar      1 <0>        -0.1321 
       7 C7         3.6878    0.2543    5.8754 C.ar      1 <0>         0.2027 
       8 N1         4.8549    0.9363    5.4567 N.am      1 <0>        -0.6834 
       9 C8         5.9586    0.8834    6.1967 C.2       1 <0>         0.7034 
      10 O1         5.9651    0.2307    7.2628 O.2       1 <0>        -0.5648 
      11 N2         7.0549    1.5249    5.8019 N.am      1 <0>        -0.7401 
      12 C9         8.2748    1.4664    6.6199 C.3       1 <0>         0.1407 
      13 C10        8.7363    0.0150    6.7414 C.3       1 <0>        -0.0859 
      14 C11        9.0949   -0.5145    5.3735 C.ar      1 <0>        -0.1215 
      15 C12        8.1253   -1.1449    4.5847 C.ar      1 <0>        -0.0699 
      16 C13        8.4515   -1.6308    3.3129 C.ar      1 <0>        -0.1435 
      17 C14        9.7495   -1.4871    2.8217 C.ar      1 <0>         0.1289 
      18 C15       10.7292   -0.8714    3.6099 C.ar      1 <0>        -0.2084 
      19 C16       10.4000   -0.3897    4.8826 C.ar      1 <0>        -0.0704 
      20 O2        10.0612   -1.9420    1.5677 O.3       1 <0>        -0.2897 
      21 C17       11.3223   -2.5907    1.3837 C.3       1 <0>         0.0392 
      22 C18       11.3880   -3.8190    2.2594 C.2       1 <0>         0.5189 
      23 O3        12.0807   -3.8127    3.2760 O.2       1 <0>        -0.5164 
      24 N3        10.6968   -4.9069    1.9313 N.am      1 <0>        -0.8500 
      25 C19        0.2424   -1.9440    7.1836 C.2       1 <0>         0.5100 
      26 O4         0.2051   -2.3913    8.2912 O.2       1 <0>        -0.5069 
      27 O5        -0.7950   -2.1367    6.3417 O.3       1 <0>        -0.3499 
      28 C20       -1.9175   -2.8827    6.8199 C.3       1 <0>         0.0344 
      29 H1         3.5719    0.6544    3.2004 H         1 <0>         0.0741 
      30 H2         2.2856    1.7655    3.7186 H         1 <0>         0.0756 
      31 H3         1.8672    0.1903    3.0100 H         1 <0>         0.0654 
      32 H4         0.6653   -0.8209    4.7644 H         1 <0>         0.1419 
      33 H5         2.4621   -1.3580    8.6139 H         1 <0>         0.1420 
      34 H6         4.4645   -0.1239    7.8402 H         1 <0>         0.1513 
      35 H7         4.8496    1.4636    4.5954 H         1 <0>         0.4099 
      36 H8         7.0485    2.0520    4.9404 H         1 <0>         0.3991 
      37 H9         8.0661    1.8655    7.6103 H         1 <0>         0.0724 
      38 H10        9.0563    2.0578    6.1473 H         1 <0>         0.0717 
      39 H11        7.9340   -0.5858    7.1646 H         1 <0>         0.0798 
      40 H12        9.6083   -0.0346    7.3902 H         1 <0>         0.0807 
      41 H13        7.1165   -1.2643    4.9513 H         1 <0>         0.1319 
      42 H14        7.7022   -2.1173    2.7062 H         1 <0>         0.1348 
      43 H15       11.7360   -0.7757    3.2309 H         1 <0>         0.1287 
      44 H16       11.1668    0.0784    5.4822 H         1 <0>         0.1269 
      45 H17       12.1240   -1.9073    1.6556 H         1 <0>         0.0958 
      46 H18       11.4309   -2.8817    0.3410 H         1 <0>         0.0955 
      47 H19       10.7408   -5.7285    2.5171 H         1 <0>         0.4037 
      48 H20       10.1284   -4.9109    1.0965 H         1 <0>         0.4105 
      49 H21       -2.3525   -2.3728    7.6769 H         1 <0>         0.0617 
      50 H22       -2.6610   -2.9644    6.0299 H         1 <0>         0.0616 
      51 H23       -1.5914   -3.8774    7.1161 H         1 <0>         0.1040 
@<TRIPOS>BOND
       1        1        2 1        
       2        1       29 1        
       3        1       30 1        
       4        1       31 1        
       5        2        7 ar       
       6        2        3 ar       
       7        3        4 ar       
       8        3       32 1        
       9        4        5 ar       
      10        4       25 1        
      11        5        6 ar       
      12        5       33 1        
      13        6        7 ar       
      14        6       34 1        
      15        7        8 1        
      16        8        9 am       
      17        8       35 1        
      18        9       10 2        
      19        9       11 am       
      20       11       12 1        
      21       11       36 1        
      22       12       13 1        
      23       12       37 1        
      24       12       38 1        
      25       13       14 1        
      26       13       39 1        
      27       13       40 1        
      28       14       19 ar       
      29       14       15 ar       
      30       15       16 ar       
      31       15       41 1        
      32       16       17 ar       
      33       16       42 1        
      34       17       18 ar       
      35       17       20 1        
      36       18       19 ar       
      37       18       43 1        
      38       19       44 1        
      39       20       21 1        
      40       21       22 1        
      41       21       45 1        
      42       21       46 1        
      43       22       23 2        
      44       22       24 am       
      45       24       47 1        
      46       24       48 1        
      47       25       26 2        
      48       25       27 1        
      49       27       28 1        
      50       28       49 1        
      51       28       50 1        
      52       28       51 1        

