#        1GCZ_R01_S0001_C0000_L00007_S0001_C0014_G0010_E0001.mol2
#        Tue Jun  6 14:08:15 2017
#        Descriptor:     30     4     7    14     8    14
#        Energy - RMSD - RMSD MassCentre:     -58.9785    999.9999    999.9999
#        Receptor:       1  Surface Point:     1  Conformer:     0
#        Ligand:         7  Surface Point:     1  Conformer:    14
#        BUDE Formal Charge: 0
#        ATOM Count: 51
#        Heavy ATOM Count: 28
@<TRIPOS>MOLECULE
ZINC61408927_1GCZ_R01_S0001_C0000_L00007_S0001_C0014_G0010_E0001
 51 52 0 0 0
SMALL
USER_CHARGES
@<TRIPOS>ATOM
       1 C1         4.0604    3.5394    5.5234 C.3       1 <0>        -0.1139 
       2 C2         3.8366    2.7396    6.7842 C.ar      1 <0>        -0.1278 
       3 C3         2.5443    2.6462    7.3143 C.ar      1 <0>        -0.0331 
       4 C4         2.3015    1.9797    8.5214 C.ar      1 <0>        -0.1443 
       5 C5         3.3692    1.3841    9.1952 C.ar      1 <0>        -0.0449 
       6 C6         4.6577    1.4352    8.6503 C.ar      1 <0>        -0.1321 
       7 C7         4.8933    2.0956    7.4387 C.ar      1 <0>         0.2027 
       8 N1         6.2007    2.1034    6.8970 N.am      1 <0>        -0.6834 
       9 C8         7.1371    1.3080    7.4061 C.2       1 <0>         0.7034 
      10 O1         6.8622    0.5530    8.3637 O.2       1 <0>        -0.5648 
      11 N2         8.3655    1.3164    6.8960 N.am      1 <0>        -0.7401 
      12 C9         9.4005    0.4372    7.4587 C.3       1 <0>         0.1407 
      13 C10        8.9644   -1.0198    7.3124 C.3       1 <0>        -0.0859 
      14 C11        8.8413   -1.3628    5.8470 C.ar      1 <0>        -0.1215 
      15 C12        7.6225   -1.1862    5.1812 C.ar      1 <0>        -0.0699 
      16 C13        7.5059   -1.4960    3.8209 C.ar      1 <0>        -0.1435 
      17 C14        8.6086   -1.9824    3.1180 C.ar      1 <0>         0.1289 
      18 C15        9.8272   -2.1762    3.7794 C.ar      1 <0>        -0.2084 
      19 C16        9.9392   -1.8684    5.1406 C.ar      1 <0>        -0.0704 
      20 O2         8.4991   -2.2628    1.7815 O.3       1 <0>        -0.2897 
      21 C17        9.1477   -3.4375    1.2872 C.3       1 <0>         0.0392 
      22 C18        8.5782   -4.6539    1.9773 C.2       1 <0>         0.5189 
      23 O3         9.2352   -5.2350    2.8399 O.2       1 <0>        -0.5164 
      24 N3         7.3667   -5.0961    1.6523 N.am      1 <0>        -0.8500 
      25 C19        0.9351    1.9071    9.0853 C.2       1 <0>         0.5100 
      26 O4         0.7446    1.3344   10.1167 O.2       1 <0>        -0.5069 
      27 O5        -0.0951    2.4877    8.4342 O.3       1 <0>        -0.3499 
      28 C20       -1.3972    2.3912    9.0178 C.3       1 <0>         0.0344 
      29 H1         4.7988    3.0369    4.9021 H         1 <0>         0.0741 
      30 H2         4.4205    4.5327    5.7838 H         1 <0>         0.0756 
      31 H3         3.1233    3.6243    4.9772 H         1 <0>         0.0654 
      32 H4         1.7139    3.0915    6.7867 H         1 <0>         0.1419 
      33 H5         3.2066    0.8830   10.1379 H         1 <0>         0.1420 
      34 H6         5.4812    0.9599    9.1625 H         1 <0>         0.1513 
      35 H7         6.4227    2.7134    6.1234 H         1 <0>         0.4099 
      36 H8         8.5864    1.9268    6.1223 H         1 <0>         0.3991 
      37 H9         9.5402    0.6707    8.5122 H         1 <0>         0.0724 
      38 H10       10.3360    0.5919    6.9252 H         1 <0>         0.0717 
      39 H11        8.0023   -1.1605    7.8004 H         1 <0>         0.0798 
      40 H12        9.7053   -1.6677    7.7762 H         1 <0>         0.0807 
      41 H13        6.7599   -0.8113    5.7119 H         1 <0>         0.1319 
      42 H14        6.5647   -1.3597    3.3093 H         1 <0>         0.1348 
      43 H15       10.6737   -2.5668    3.2342 H         1 <0>         0.1287 
      44 H16       10.8836   -2.0278    5.6398 H         1 <0>         0.1269 
      45 H17       10.2151   -3.3729    1.4870 H         1 <0>         0.0958 
      46 H18        8.9829   -3.5179    0.2148 H         1 <0>         0.0955 
      47 H19        6.9859   -5.9098    2.1140 H         1 <0>         0.4037 
      48 H20        6.8283   -4.6182    0.9440 H         1 <0>         0.4105 
      49 H21       -1.3911    2.8653    9.9970 H         1 <0>         0.0617 
      50 H22       -2.1194    2.8917    8.3763 H         1 <0>         0.0616 
      51 H23       -1.6699    1.3433    9.1232 H         1 <0>         0.1040 
@<TRIPOS>BOND
       1        1        2 1        
       2        1       29 1        
       3        1       30 1        
       4        1       31 1        
       5        2        7 ar       
       6        2        3 ar       
       7        3        4 ar       
       8        3       32 1        
       9        4        5 ar       
      10        4       25 1        
      11        5        6 ar       
      12        5       33 1        
      13        6        7 ar       
      14        6       34 1        
      15        7        8 1        
      16        8        9 am       
      17        8       35 1        
      18        9       10 2        
      19        9       11 am       
      20       11       12 1        
      21       11       36 1        
      22       12       13 1        
      23       12       37 1        
      24       12       38 1        
      25       13       14 1        
      26       13       39 1        
      27       13       40 1        
      28       14       19 ar       
      29       14       15 ar       
      30       15       16 ar       
      31       15       41 1        
      32       16       17 ar       
      33       16       42 1        
      34       17       18 ar       
      35       17       20 1        
      36       18       19 ar       
      37       18       43 1        
      38       19       44 1        
      39       20       21 1        
      40       21       22 1        
      41       21       45 1        
      42       21       46 1        
      43       22       23 2        
      44       22       24 am       
      45       24       47 1        
      46       24       48 1        
      47       25       26 2        
      48       25       27 1        
      49       27       28 1        
      50       28       49 1        
      51       28       50 1        
      52       28       51 1        

