#        1GCZ_R01_S0001_C0000_L00007_S0001_C0015_G0010_E0001.mol2
#        Tue Jun  6 09:56:35 2017
#        Descriptor:     13     4    26    15     9    13
#        Energy - RMSD - RMSD MassCentre:     -68.7346    999.9999    999.9999
#        Receptor:       1  Surface Point:     1  Conformer:     0
#        Ligand:         7  Surface Point:     1  Conformer:    15
#        BUDE Formal Charge: 0
#        ATOM Count: 51
#        Heavy ATOM Count: 28
@<TRIPOS>MOLECULE
ZINC61408927_1GCZ_R01_S0001_C0000_L00007_S0001_C0015_G0010_E0001
 51 52 0 0 0
SMALL
USER_CHARGES
@<TRIPOS>ATOM
       1 C1         1.9390    3.1781    6.1148 C.3       1 <0>        -0.1139 
       2 C2         2.0697    2.0623    5.1061 C.ar      1 <0>        -0.1278 
       3 C3         0.9543    1.6956    4.3438 C.ar      1 <0>        -0.0331 
       4 C4         1.0075    0.6180    3.4517 C.ar      1 <0>        -0.1443 
       5 C5         2.2029   -0.0892    3.3111 C.ar      1 <0>        -0.0449 
       6 C6         3.3355    0.2978    4.0372 C.ar      1 <0>        -0.1321 
       7 C7         3.2790    1.3816    4.9215 C.ar      1 <0>         0.2027 
       8 N1         4.4484    1.7688    5.6179 N.am      1 <0>        -0.6834 
       9 C8         5.6286    1.2641    5.2698 C.2       1 <0>         0.7034 
      10 O1         5.7048    0.4472    4.3268 O.2       1 <0>        -0.5648 
      11 N2         6.7269    1.6290    5.9254 N.am      1 <0>        -0.7401 
      12 C9         8.0313    1.0712    5.5406 C.3       1 <0>         0.1407 
      13 C10        9.1184    1.6499    6.4448 C.3       1 <0>        -0.0859 
      14 C11       10.4584    1.0769    6.0496 C.ar      1 <0>        -0.1215 
      15 C12       10.9274   -0.0981    6.6489 C.ar      1 <0>        -0.0699 
      16 C13       12.1660   -0.6369    6.2802 C.ar      1 <0>        -0.1435 
      17 C14       12.9418   -0.0043    5.3084 C.ar      1 <0>         0.1289 
      18 C15       12.4873    1.1793    4.7148 C.ar      1 <0>        -0.2084 
      19 C16       11.2498    1.7169    5.0883 C.ar      1 <0>        -0.0704 
      20 O2        14.1426   -0.5457    4.9320 O.3       1 <0>        -0.2897 
      21 C17       15.2382    0.3449    4.7049 C.3       1 <0>         0.0392 
      22 C18       15.5446    1.0989    5.9768 C.2       1 <0>         0.5189 
      23 O3        15.2268    2.2827    6.0811 O.2       1 <0>        -0.5164 
      24 N3        16.1578    0.4828    6.9834 N.am      1 <0>        -0.8500 
      25 C19       -0.1843    0.2236    2.6678 C.2       1 <0>         0.5100 
      26 O4        -0.1225   -0.6988    1.9105 O.2       1 <0>        -0.5069 
      27 O5        -1.3405    0.9060    2.8087 O.3       1 <0>        -0.3499 
      28 C20       -2.4652    0.4882    2.0304 C.3       1 <0>         0.0344 
      29 H1         2.8505    3.7722    6.1176 H         1 <0>         0.0741 
      30 H2         1.7784    2.7548    7.1042 H         1 <0>         0.0756 
      31 H3         1.0944    3.8100    5.8485 H         1 <0>         0.0654 
      32 H4         0.0331    2.2514    4.4380 H         1 <0>         0.1419 
      33 H5         2.2591   -0.9363    2.6437 H         1 <0>         0.1420 
      34 H6         4.2652   -0.2382    3.9161 H         1 <0>         0.1513 
      35 H7         4.3867    2.4289    6.3798 H         1 <0>         0.4099 
      36 H8         6.6641    2.2892    6.6871 H         1 <0>         0.3991 
      37 H9         8.2443    1.3294    4.5053 H         1 <0>         0.0724 
      38 H10        8.0079   -0.0113    5.6476 H         1 <0>         0.0717 
      39 H11        8.9039    1.3917    7.4797 H         1 <0>         0.0798 
      40 H12        9.1404    2.7324    6.3374 H         1 <0>         0.0807 
      41 H13       10.3387   -0.5988    7.4032 H         1 <0>         0.1319 
      42 H14       12.5263   -1.5432    6.7442 H         1 <0>         0.1348 
      43 H15       13.0983    1.6729    3.9737 H         1 <0>         0.1287 
      44 H16       10.9136    2.6336    4.6264 H         1 <0>         0.1269 
      45 H17       14.9748    1.0498    3.9192 H         1 <0>         0.0958 
      46 H18       16.1128   -0.2269    4.4020 H         1 <0>         0.0955 
      47 H19       16.4182   -0.4891    6.8965 H         1 <0>         0.4037 
      48 H20       16.3627    0.9871    7.8340 H         1 <0>         0.4105 
      49 H21       -2.7210   -0.5379    2.2857 H         1 <0>         0.0617 
      50 H22       -3.3125    1.1372    2.2412 H         1 <0>         0.0616 
      51 H23       -2.2160    0.5482    0.9730 H         1 <0>         0.1040 
@<TRIPOS>BOND
       1        1        2 1        
       2        1       29 1        
       3        1       30 1        
       4        1       31 1        
       5        2        7 ar       
       6        2        3 ar       
       7        3        4 ar       
       8        3       32 1        
       9        4        5 ar       
      10        4       25 1        
      11        5        6 ar       
      12        5       33 1        
      13        6        7 ar       
      14        6       34 1        
      15        7        8 1        
      16        8        9 am       
      17        8       35 1        
      18        9       10 2        
      19        9       11 am       
      20       11       12 1        
      21       11       36 1        
      22       12       13 1        
      23       12       37 1        
      24       12       38 1        
      25       13       14 1        
      26       13       39 1        
      27       13       40 1        
      28       14       19 ar       
      29       14       15 ar       
      30       15       16 ar       
      31       15       41 1        
      32       16       17 ar       
      33       16       42 1        
      34       17       18 ar       
      35       17       20 1        
      36       18       19 ar       
      37       18       43 1        
      38       19       44 1        
      39       20       21 1        
      40       21       22 1        
      41       21       45 1        
      42       21       46 1        
      43       22       23 2        
      44       22       24 am       
      45       24       47 1        
      46       24       48 1        
      47       25       26 2        
      48       25       27 1        
      49       27       28 1        
      50       28       49 1        
      51       28       50 1        
      52       28       51 1        

