#        1GCZ_R01_S0001_C0000_L00007_S0001_C0015_G0010_E0001.mol2
#        Tue Jun  6 14:08:17 2017
#        Descriptor:     31    24    28    15     9    14
#        Energy - RMSD - RMSD MassCentre:     -62.8464    999.9999    999.9999
#        Receptor:       1  Surface Point:     1  Conformer:     0
#        Ligand:         7  Surface Point:     1  Conformer:    15
#        BUDE Formal Charge: 0
#        ATOM Count: 51
#        Heavy ATOM Count: 28
@<TRIPOS>MOLECULE
ZINC61408927_1GCZ_R01_S0001_C0000_L00007_S0001_C0015_G0010_E0001
 51 52 0 0 0
SMALL
USER_CHARGES
@<TRIPOS>ATOM
       1 C1        12.0520    3.2289    7.0534 C.3       1 <0>        -0.1139 
       2 C2        11.9394    2.0106    6.1687 C.ar      1 <0>        -0.1278 
       3 C3        13.1056    1.3560    5.7547 C.ar      1 <0>        -0.0331 
       4 C4        13.0540    0.2693    4.8736 C.ar      1 <0>        -0.1443 
       5 C5        11.8125   -0.1763    4.4166 C.ar      1 <0>        -0.0449 
       6 C6        10.6387    0.4446    4.8595 C.ar      1 <0>        -0.1321 
       7 C7        10.6957    1.5254    5.7474 C.ar      1 <0>         0.2027 
       8 N1         9.4910    2.1125    6.2020 N.am      1 <0>        -0.6834 
       9 C8         8.3284    1.5079    5.9748 C.2       1 <0>         0.7034 
      10 O1         8.2999    0.4204    5.3593 O.2       1 <0>        -0.5648 
      11 N2         7.1969    2.0610    6.4027 N.am      1 <0>        -0.7401 
      12 C9         5.9120    1.3927    6.1515 C.3       1 <0>         0.1407 
      13 C10        4.7791    2.2310    6.7417 C.3       1 <0>        -0.0859 
      14 C11        3.4591    1.5445    6.4838 C.ar      1 <0>        -0.1215 
      15 C12        2.7333    1.8261    5.3203 C.ar      1 <0>        -0.0699 
      16 C13        1.5125    1.1865    5.0736 C.ar      1 <0>        -0.1435 
      17 C14        1.0116    0.2600    5.9885 C.ar      1 <0>         0.1289 
      18 C15        1.7236   -0.0164    7.1618 C.ar      1 <0>        -0.2084 
      19 C16        2.9423    0.6275    7.4067 C.ar      1 <0>        -0.0704 
      20 O2        -0.1715   -0.3822    5.7341 O.3       1 <0>        -0.2897 
      21 C17       -1.0750   -0.5804    6.8247 C.3       1 <0>         0.0392 
      22 C18       -1.4847    0.7595    7.3875 C.2       1 <0>         0.5189 
      23 O3        -1.0255    1.1407    8.4632 O.2       1 <0>        -0.5164 
      24 N3        -2.3419    1.5267    6.7200 N.am      1 <0>        -0.8500 
      25 C19       14.2944   -0.4008    4.4234 C.2       1 <0>         0.5100 
      26 O4        14.2333   -1.3272    3.6709 O.2       1 <0>        -0.5069 
      27 O5        15.4942    0.0347    4.8631 O.3       1 <0>        -0.3499 
      28 C20       16.6648   -0.6441    4.4007 C.3       1 <0>         0.0344 
      29 H1        11.2468    3.2207    7.7849 H         1 <0>         0.0741 
      30 H2        11.9796    4.1271    6.4436 H         1 <0>         0.0756 
      31 H3        13.0105    3.2154    7.5680 H         1 <0>         0.0654 
      32 H4        14.0662    1.6879    6.1199 H         1 <0>         0.1419 
      33 H5        11.7521   -0.9998    3.7205 H         1 <0>         0.1420 
      34 H6         9.6771    0.0894    4.5197 H         1 <0>         0.1513 
      35 H7         9.5141    2.9912    6.6993 H         1 <0>         0.4099 
      36 H8         7.2212    2.9397    6.8999 H         1 <0>         0.3991 
      37 H9         5.9178    0.4098    6.6181 H         1 <0>         0.0724 
      38 H10        5.7635    1.2848    5.0791 H         1 <0>         0.0717 
      39 H11        4.7749    3.2136    6.2749 H         1 <0>         0.0798 
      40 H12        4.9291    2.3386    7.8140 H         1 <0>         0.0807 
      41 H13        3.1076    2.5414    4.6030 H         1 <0>         0.1319 
      42 H14        0.9538    1.4057    4.1757 H         1 <0>         0.1348 
      43 H15        1.3242   -0.7236    7.8737 H         1 <0>         0.1287 
      44 H16        3.4786    0.4090    8.3184 H         1 <0>         0.1269 
      45 H17       -0.5843   -1.1653    7.5997 H         1 <0>         0.0958 
      46 H18       -1.9569   -1.1114    6.4723 H         1 <0>         0.0955 
      47 H19       -2.7183    1.2126    5.8371 H         1 <0>         0.4037 
      48 H20       -2.6159    2.4229    7.0965 H         1 <0>         0.4105 
      49 H21       16.7257   -0.5641    3.3174 H         1 <0>         0.0617 
      50 H22       17.5467   -0.1910    4.8485 H         1 <0>         0.0616 
      51 H23       16.6112   -1.6929    4.6851 H         1 <0>         0.1040 
@<TRIPOS>BOND
       1        1        2 1        
       2        1       29 1        
       3        1       30 1        
       4        1       31 1        
       5        2        7 ar       
       6        2        3 ar       
       7        3        4 ar       
       8        3       32 1        
       9        4        5 ar       
      10        4       25 1        
      11        5        6 ar       
      12        5       33 1        
      13        6        7 ar       
      14        6       34 1        
      15        7        8 1        
      16        8        9 am       
      17        8       35 1        
      18        9       10 2        
      19        9       11 am       
      20       11       12 1        
      21       11       36 1        
      22       12       13 1        
      23       12       37 1        
      24       12       38 1        
      25       13       14 1        
      26       13       39 1        
      27       13       40 1        
      28       14       19 ar       
      29       14       15 ar       
      30       15       16 ar       
      31       15       41 1        
      32       16       17 ar       
      33       16       42 1        
      34       17       18 ar       
      35       17       20 1        
      36       18       19 ar       
      37       18       43 1        
      38       19       44 1        
      39       20       21 1        
      40       21       22 1        
      41       21       45 1        
      42       21       46 1        
      43       22       23 2        
      44       22       24 am       
      45       24       47 1        
      46       24       48 1        
      47       25       26 2        
      48       25       27 1        
      49       27       28 1        
      50       28       49 1        
      51       28       50 1        
      52       28       51 1        

