#        1GCZ_R01_S0001_C0000_L00003_S0001_C0003_G0010_E0001.mol2
#        Tue Jun  6 09:54:38 2017
#        Descriptor:     20    14    18     9     5    15
#        Energy - RMSD - RMSD MassCentre:     -51.3507    999.9999    999.9999
#        Receptor:       1  Surface Point:     1  Conformer:     0
#        Ligand:         3  Surface Point:     1  Conformer:     3
#        BUDE Formal Charge: 0
#        ATOM Count: 58
#        Heavy ATOM Count: 30
@<TRIPOS>MOLECULE
ZINC61580633_1GCZ_R01_S0001_C0000_L00003_S0001_C0003_G0010_E0001
 58 59 0 0 0
SMALL
USER_CHARGES
@<TRIPOS>ATOM
       1 C1         3.8962    1.5394    5.5089 C.3       1 <0>        -0.1532 
       2 C2         2.3854    1.3508    5.4065 C.3       1 <0>        -0.1224 
       3 C3         1.7088    2.0012    6.6123 C.3       1 <0>        -0.1198 
       4 C4         0.1960    1.8123    6.5097 C.3       1 <0>         0.0610 
       5 O1        -0.1136    0.4171    6.5575 O.3       1 <0>        -0.3878 
       6 C5        -1.5205    0.1782    6.4652 C.3       1 <0>         0.0487 
       7 C6        -1.7856   -1.3256    6.5219 C.3       1 <0>         0.1244 
       8 N1        -1.5473   -1.8131    7.8880 N.am      1 <0>        -0.7216 
       9 C7        -2.4020   -1.5093    8.8606 C.2       1 <0>         0.5161 
      10 O2        -3.3917   -0.8209    8.6179 O.2       1 <0>        -0.5151 
      11 C8        -2.1571   -2.0102   10.2640 C.3       1 <0>         0.0490 
      12 O3        -2.3543   -3.4259   10.3051 O.3       1 <0>        -0.3194 
      13 C9        -1.5353   -4.2011    9.5630 C.2       1 <0>         0.5417 
      14 O4        -0.6596   -3.6901    8.8845 O.2       1 <0>        -0.5337 
      15 C10       -1.6998   -5.6718    9.5725 C.2       1 <0>        -0.2559 
      16 C11       -2.7177   -6.3943   10.3678 C.2       1 <0>        -0.0791 
      17 C12       -2.6435   -7.7175   10.2073 C.2       1 <0>        -0.2585 
      18 S1        -1.3575   -8.1986    9.0905 S.3       1 <0>         0.3028 
      19 C13       -0.9224   -6.4986    8.8602 C.2       1 <0>         0.0893 
      20 N2         0.0925   -6.0394    8.0626 N.am      1 <0>        -0.6099 
      21 C14        0.8385   -6.8983    7.3736 C.2       1 <0>         0.5551 
      22 O5         0.6171   -8.1056    7.4524 O.2       1 <0>        -0.4939 
      23 C15        1.9343   -6.4006    6.5124 C.ar      1 <0>        -0.1466 
      24 C16        2.6965   -7.3397    5.8072 C.ar      1 <0>        -0.0772 
      25 C17        3.7921   -6.9362    5.0347 C.ar      1 <0>        -0.1241 
      26 C18        4.1523   -5.5856    4.9613 C.ar      1 <0>        -0.0446 
      27 C19        3.3604   -4.6389    5.6222 C.ar      1 <0>        -0.1261 
      28 C20        2.2482   -5.0438    6.3699 C.ar      1 <0>        -0.0460 
      29 C21        5.3740   -5.1775    4.1731 C.3       1 <0>        -0.0928 
      30 C22        6.5950   -5.1865    5.0883 C.3       1 <0>        -0.1485 
      31 H1         4.2599    1.0624    6.4168 H         1 <0>         0.0567 
      32 H2         4.1271    2.6021    5.5397 H         1 <0>         0.0554 
      33 H3         4.3770    1.0881    4.6437 H         1 <0>         0.0557 
      34 H4         2.0224    1.8167    4.4927 H         1 <0>         0.0632 
      35 H5         2.1522    0.2883    5.3899 H         1 <0>         0.0635 
      36 H6         2.0705    1.5357    7.5267 H         1 <0>         0.0711 
      37 H7         1.9407    3.0641    6.6294 H         1 <0>         0.0704 
      38 H8        -0.2907    2.3198    7.3399 H         1 <0>         0.0498 
      39 H9        -0.1592    2.2299    5.5699 H         1 <0>         0.0505 
      40 H10       -1.8959    0.5768    5.5252 H         1 <0>         0.0584 
      41 H11       -2.0271    0.6665    7.2950 H         1 <0>         0.0702 
      42 H12       -1.1179   -1.8384    5.8329 H         1 <0>         0.0872 
      43 H13       -2.8182   -1.5232    6.2421 H         1 <0>         0.0805 
      44 H14       -0.7348   -2.3786    8.0886 H         1 <0>         0.4058 
      45 H15       -1.1361   -1.7781   10.5596 H         1 <0>         0.1008 
      46 H16       -2.8520   -1.5279   10.9482 H         1 <0>         0.0999 
      47 H17       -3.4379   -5.8865   10.9921 H         1 <0>         0.1557 
      48 H18       -3.3126   -8.4056   10.7024 H         1 <0>         0.1929 
      49 H19        0.2743   -5.0481    7.9978 H         1 <0>         0.4317 
      50 H20        2.4414   -8.3877    5.8617 H         1 <0>         0.1287 
      51 H21        4.3689   -7.6690    4.4902 H         1 <0>         0.1326 
      52 H22        3.6171   -3.5928    5.5436 H         1 <0>         0.1342 
      53 H23        1.6413   -4.2654    6.8082 H         1 <0>         0.1410 
      54 H24        5.2282   -4.1770    3.7715 H         1 <0>         0.0777 
      55 H25        5.5279   -5.8783    3.3552 H         1 <0>         0.0771 
      56 H26        6.7471   -6.1903    5.4793 H         1 <0>         0.0623 
      57 H27        6.4340   -4.4958    5.9135 H         1 <0>         0.0572 
      58 H28        7.4728   -4.8796    4.5236 H         1 <0>         0.0578 
@<TRIPOS>BOND
       1        1        2 1        
       2        1       31 1        
       3        1       32 1        
       4        1       33 1        
       5        2        3 1        
       6        2       34 1        
       7        2       35 1        
       8        3        4 1        
       9        3       36 1        
      10        3       37 1        
      11        4        5 1        
      12        4       38 1        
      13        4       39 1        
      14        5        6 1        
      15        6        7 1        
      16        6       40 1        
      17        6       41 1        
      18        7        8 1        
      19        7       42 1        
      20        7       43 1        
      21        8        9 am       
      22        8       44 1        
      23        9       10 2        
      24        9       11 1        
      25       11       12 1        
      26       11       45 1        
      27       11       46 1        
      28       12       13 1        
      29       13       14 2        
      30       13       15 1        
      31       15       19 2        
      32       15       16 1        
      33       16       17 2        
      34       16       47 1        
      35       17       18 1        
      36       17       48 1        
      37       18       19 1        
      38       19       20 1        
      39       20       21 am       
      40       20       49 1        
      41       21       22 2        
      42       21       23 1        
      43       23       28 ar       
      44       23       24 ar       
      45       24       25 ar       
      46       24       50 1        
      47       25       26 ar       
      48       25       51 1        
      49       26       27 ar       
      50       26       29 1        
      51       27       28 ar       
      52       27       52 1        
      53       28       53 1        
      54       29       30 1        
      55       29       54 1        
      56       29       55 1        
      57       30       56 1        
      58       30       57 1        
      59       30       58 1        

