#        1GCZ_R01_S0001_C0000_L00007_S0001_C0018_G0010_E0001.mol2
#        Tue Jun  6 09:56:38 2017
#        Descriptor:      1    16     4     7     8    13
#        Energy - RMSD - RMSD MassCentre:     -64.5438    999.9999    999.9999
#        Receptor:       1  Surface Point:     1  Conformer:     0
#        Ligand:         7  Surface Point:     1  Conformer:    18
#        BUDE Formal Charge: 0
#        ATOM Count: 51
#        Heavy ATOM Count: 28
@<TRIPOS>MOLECULE
ZINC61408927_1GCZ_R01_S0001_C0000_L00007_S0001_C0018_G0010_E0001
 51 52 0 0 0
SMALL
USER_CHARGES
@<TRIPOS>ATOM
       1 C1        -1.6700    3.2747    2.3140 C.3       1 <0>        -0.1139 
       2 C2        -0.9965    1.9738    1.9485 C.ar      1 <0>        -0.1278 
       3 C3        -1.1167    1.4849    0.6422 C.ar      1 <0>        -0.0331 
       4 C4        -0.5740    0.2469    0.2778 C.ar      1 <0>        -0.1443 
       5 C5         0.1139   -0.5014    1.2347 C.ar      1 <0>        -0.0449 
       6 C6         0.2764   -0.0005    2.5318 C.ar      1 <0>        -0.1321 
       7 C7        -0.2610    1.2420    2.8884 C.ar      1 <0>         0.2027 
       8 N1        -0.0534    1.7362    4.1980 N.am      1 <0>        -0.6834 
       9 C8         0.8253    1.1440    5.0017 C.2       1 <0>         0.7034 
      10 O1         1.4683    0.1502    4.5999 O.2       1 <0>        -0.5648 
      11 N2         1.0194    1.6097    6.2325 N.am      1 <0>        -0.7401 
      12 C9         1.9907    0.9551    7.1207 C.3       1 <0>         0.1407 
      13 C10        1.5714   -0.4959    7.3512 C.3       1 <0>        -0.0859 
      14 C11        0.2362   -0.5273    8.0558 C.ar      1 <0>        -0.1215 
      15 C12        0.1771   -0.5442    9.4545 C.ar      1 <0>        -0.0699 
      16 C13       -1.0587   -0.5659   10.1120 C.ar      1 <0>        -0.1435 
      17 C14       -2.2428   -0.5688    9.3742 C.ar      1 <0>         0.1289 
      18 C15       -2.1928   -0.5674    7.9751 C.ar      1 <0>        -0.2084 
      19 C16       -0.9551   -0.5488    7.3210 C.ar      1 <0>        -0.0704 
      20 O2        -3.4513   -0.5663   10.0194 O.3       1 <0>        -0.2897 
      21 C17       -4.4976   -1.3832    9.4872 C.3       1 <0>         0.0392 
      22 C18       -4.0631   -2.8292    9.5022 C.2       1 <0>         0.5189 
      23 O3        -3.7462   -3.3867    8.4526 O.2       1 <0>        -0.5164 
      24 N3        -4.0233   -3.4992   10.6505 N.am      1 <0>        -0.8500 
      25 C19       -0.7270   -0.2716   -1.0999 C.2       1 <0>         0.5100 
      26 O4        -0.2578   -1.3303   -1.3949 O.2       1 <0>        -0.5069 
      27 O5        -1.3965    0.4517   -2.0224 O.3       1 <0>        -0.3499 
      28 C20       -1.5186   -0.0902   -3.3402 C.3       1 <0>         0.0344 
      29 H1        -0.9387    4.0798    2.2909 H         1 <0>         0.0741 
      30 H2        -2.0917    3.1956    3.3138 H         1 <0>         0.0756 
      31 H3        -2.4639    3.4843    1.6003 H         1 <0>         0.0654 
      32 H4        -1.6337    2.0693   -0.1044 H         1 <0>         0.1419 
      33 H5         0.5223   -1.4680    0.9796 H         1 <0>         0.1420 
      34 H6         0.8231   -0.5712    3.2678 H         1 <0>         0.1513 
      35 H7        -0.5729    2.5391    4.5227 H         1 <0>         0.4099 
      36 H8         0.4993    2.4127    6.5560 H         1 <0>         0.3991 
      37 H9         2.0213    1.4801    8.0732 H         1 <0>         0.0724 
      38 H10        2.9761    0.9799    6.6604 H         1 <0>         0.0717 
      39 H11        2.3180   -0.9953    7.9652 H         1 <0>         0.0798 
      40 H12        1.4887   -1.0054    6.3934 H         1 <0>         0.0807 
      41 H13        1.0850   -0.5428   10.0393 H         1 <0>         0.1319 
      42 H14       -1.1022   -0.5794   11.1910 H         1 <0>         0.1348 
      43 H15       -3.1122   -0.5845    7.4087 H         1 <0>         0.1287 
      44 H16       -0.9308   -0.5534    6.2413 H         1 <0>         0.1269 
      45 H17       -4.7102   -1.0784    8.4646 H         1 <0>         0.0958 
      46 H18       -5.3926   -1.2664   10.0946 H         1 <0>         0.0955 
      47 H19       -3.7327   -4.4663   10.6606 H         1 <0>         0.4037 
      48 H20       -4.2837   -3.0404   11.5117 H         1 <0>         0.4105 
      49 H21       -2.0536   -1.0364   -3.2944 H         1 <0>         0.0617 
      50 H22       -2.0676    0.6074   -3.9691 H         1 <0>         0.0616 
      51 H23       -0.5274   -0.2531   -3.7579 H         1 <0>         0.1040 
@<TRIPOS>BOND
       1        1        2 1        
       2        1       29 1        
       3        1       30 1        
       4        1       31 1        
       5        2        7 ar       
       6        2        3 ar       
       7        3        4 ar       
       8        3       32 1        
       9        4        5 ar       
      10        4       25 1        
      11        5        6 ar       
      12        5       33 1        
      13        6        7 ar       
      14        6       34 1        
      15        7        8 1        
      16        8        9 am       
      17        8       35 1        
      18        9       10 2        
      19        9       11 am       
      20       11       12 1        
      21       11       36 1        
      22       12       13 1        
      23       12       37 1        
      24       12       38 1        
      25       13       14 1        
      26       13       39 1        
      27       13       40 1        
      28       14       19 ar       
      29       14       15 ar       
      30       15       16 ar       
      31       15       41 1        
      32       16       17 ar       
      33       16       42 1        
      34       17       18 ar       
      35       17       20 1        
      36       18       19 ar       
      37       18       43 1        
      38       19       44 1        
      39       20       21 1        
      40       21       22 1        
      41       21       45 1        
      42       21       46 1        
      43       22       23 2        
      44       22       24 am       
      45       24       47 1        
      46       24       48 1        
      47       25       26 2        
      48       25       27 1        
      49       27       28 1        
      50       28       49 1        
      51       28       50 1        
      52       28       51 1        

