#        1GCZ_R01_S0001_C0000_L00007_S0001_C0018_G0010_E0001.mol2
#        Tue Jun  6 14:08:23 2017
#        Descriptor:     30    14     9    15     8    15
#        Energy - RMSD - RMSD MassCentre:     -61.6807    999.9999    999.9999
#        Receptor:       1  Surface Point:     1  Conformer:     0
#        Ligand:         7  Surface Point:     1  Conformer:    18
#        BUDE Formal Charge: 0
#        ATOM Count: 51
#        Heavy ATOM Count: 28
@<TRIPOS>MOLECULE
ZINC61408927_1GCZ_R01_S0001_C0000_L00007_S0001_C0018_G0010_E0001
 51 52 0 0 0
SMALL
USER_CHARGES
@<TRIPOS>ATOM
       1 C1         4.1345    3.1897    7.0451 C.3       1 <0>        -0.1139 
       2 C2         4.1977    2.0918    6.0106 C.ar      1 <0>        -0.1278 
       3 C3         3.0153    1.6617    5.3969 C.ar      1 <0>        -0.0331 
       4 C4         3.0151    0.5962    4.4887 C.ar      1 <0>        -0.1443 
       5 C5         4.2221   -0.0336    4.1802 C.ar      1 <0>        -0.0449 
       6 C6         5.4154    0.4181    4.7560 C.ar      1 <0>        -0.1321 
       7 C7         5.4110    1.4896    5.6569 C.ar      1 <0>         0.2027 
       8 N1         6.6368    1.9441    6.1985 N.am      1 <0>        -0.6834 
       9 C8         7.7888    1.5169    5.6895 C.2       1 <0>         0.7034 
      10 O1         7.7887    0.7134    4.7319 O.2       1 <0>        -0.5648 
      11 N2         8.9402    1.9450    6.1996 N.am      1 <0>        -0.7401 
      12 C9        10.2135    1.4728    5.6369 C.3       1 <0>         0.1407 
      13 C10       10.3021   -0.0455    5.7832 C.3       1 <0>        -0.0859 
      14 C11       10.3037   -0.4099    7.2486 C.ar      1 <0>        -0.1215 
      15 C12       11.5122   -0.5169    7.9474 C.ar      1 <0>        -0.0699 
      16 C13       11.5180   -0.8473    9.3078 C.ar      1 <0>        -0.1435 
      17 C14       10.3148   -1.0707    9.9778 C.ar      1 <0>         0.1289 
      18 C15        9.1027   -0.9807    9.2833 C.ar      1 <0>        -0.2084 
      19 C16        9.1008   -0.6531    7.9220 C.ar      1 <0>        -0.0704 
      20 O2        10.3212   -1.3708   11.3145 O.3       1 <0>        -0.2897 
      21 C17        9.4089   -2.3677   11.7825 C.3       1 <0>         0.0392 
      22 C18        9.7048   -3.6806   11.0980 C.2       1 <0>         0.5189 
      23 O3         8.9565   -4.0954   10.2142 O.2       1 <0>        -0.5164 
      24 N3        10.7744   -4.3879   11.4512 N.am      1 <0>        -0.8500 
      25 C19        1.7559    0.1338    3.8633 C.2       1 <0>         0.5100 
      26 O4         1.7727   -0.7772    3.0901 O.2       1 <0>        -0.5069 
      27 O5         0.5893    0.7414    4.1666 O.3       1 <0>        -0.3499 
      28 C20       -0.6013    0.2598    3.5375 C.3       1 <0>         0.0344 
      29 H1         4.4102    4.1364    6.5856 H         1 <0>         0.0741 
      30 H2         4.8252    2.9642    7.8550 H         1 <0>         0.0756 
      31 H3         3.1227    3.2581    7.4390 H         1 <0>         0.0654 
      32 H4         2.0827    2.1580    5.6209 H         1 <0>         0.1419 
      33 H5         4.2407   -0.8706    3.4979 H         1 <0>         0.1420 
      34 H6         6.3518   -0.0577    4.5046 H         1 <0>         0.1513 
      35 H7         6.6369    2.5932    6.9722 H         1 <0>         0.4099 
      36 H8         8.9391    2.5941    6.9733 H         1 <0>         0.3991 
      37 H9        11.0398    1.9380    6.1705 H         1 <0>         0.0724 
      38 H10       10.2650    1.7400    4.5835 H         1 <0>         0.0717 
      39 H11       11.2198   -0.4009    5.3194 H         1 <0>         0.0798 
      40 H12        9.4460   -0.5068    5.2952 H         1 <0>         0.0807 
      41 H13       12.4516   -0.3475    7.4423 H         1 <0>         0.1319 
      42 H14       12.4513   -0.9298    9.8449 H         1 <0>         0.1348 
      43 H15        8.1749   -1.1689    9.8032 H         1 <0>         0.1287 
      44 H16        8.1590   -0.5923    7.3971 H         1 <0>         0.1269 
      45 H17        8.3900   -2.0612   11.5554 H         1 <0>         0.0958 
      46 H18        9.5217   -2.4853   12.8582 H         1 <0>         0.0955 
      47 H19       10.9723   -5.2661   10.9933 H         1 <0>         0.4037 
      48 H20       11.3881   -4.0464   12.1769 H         1 <0>         0.4105 
      49 H21       -0.7577   -0.7822    3.8083 H         1 <0>         0.0617 
      50 H22       -1.4511    0.8528    3.8688 H         1 <0>         0.0616 
      51 H23       -0.4991    0.3432    2.4576 H         1 <0>         0.1040 
@<TRIPOS>BOND
       1        1        2 1        
       2        1       29 1        
       3        1       30 1        
       4        1       31 1        
       5        2        7 ar       
       6        2        3 ar       
       7        3        4 ar       
       8        3       32 1        
       9        4        5 ar       
      10        4       25 1        
      11        5        6 ar       
      12        5       33 1        
      13        6        7 ar       
      14        6       34 1        
      15        7        8 1        
      16        8        9 am       
      17        8       35 1        
      18        9       10 2        
      19        9       11 am       
      20       11       12 1        
      21       11       36 1        
      22       12       13 1        
      23       12       37 1        
      24       12       38 1        
      25       13       14 1        
      26       13       39 1        
      27       13       40 1        
      28       14       19 ar       
      29       14       15 ar       
      30       15       16 ar       
      31       15       41 1        
      32       16       17 ar       
      33       16       42 1        
      34       17       18 ar       
      35       17       20 1        
      36       18       19 ar       
      37       18       43 1        
      38       19       44 1        
      39       20       21 1        
      40       21       22 1        
      41       21       45 1        
      42       21       46 1        
      43       22       23 2        
      44       22       24 am       
      45       24       47 1        
      46       24       48 1        
      47       25       26 2        
      48       25       27 1        
      49       27       28 1        
      50       28       49 1        
      51       28       50 1        
      52       28       51 1        

