#        1GCZ_R01_S0001_C0000_L00007_S0001_C0019_G0010_E0001.mol2
#        Tue Jun  6 09:56:39 2017
#        Descriptor:     18    35    18     5     8    15
#        Energy - RMSD - RMSD MassCentre:     -63.7827    999.9999    999.9999
#        Receptor:       1  Surface Point:     1  Conformer:     0
#        Ligand:         7  Surface Point:     1  Conformer:    19
#        BUDE Formal Charge: 0
#        ATOM Count: 51
#        Heavy ATOM Count: 28
@<TRIPOS>MOLECULE
ZINC61408927_1GCZ_R01_S0001_C0000_L00007_S0001_C0019_G0010_E0001
 51 52 0 0 0
SMALL
USER_CHARGES
@<TRIPOS>ATOM
       1 C1        -0.8410    2.8729    4.6790 C.3       1 <0>        -0.1139 
       2 C2        -0.8937    1.5438    3.9646 C.ar      1 <0>        -0.1278 
       3 C3        -0.5871    1.4884    2.5999 C.ar      1 <0>        -0.0331 
       4 C4        -0.6961    0.2929    1.8795 C.ar      1 <0>        -0.1443 
       5 C5        -1.1018   -0.8659    2.5438 C.ar      1 <0>        -0.0449 
       6 C6        -1.3685   -0.8291    3.9176 C.ar      1 <0>        -0.1321 
       7 C7        -1.2495    0.3673    4.6347 C.ar      1 <0>         0.2027 
       8 N1        -1.4952    0.3667    6.0283 N.am      1 <0>        -0.6834 
       9 C8        -1.6108   -0.7848    6.6836 C.2       1 <0>         0.7034 
      10 O1        -1.5022   -1.8673    6.0680 O.2       1 <0>        -0.5648 
      11 N2        -1.8417   -0.7838    7.9935 N.am      1 <0>        -0.7401 
      12 C9        -1.9694   -2.0566    8.7178 C.3       1 <0>         0.1407 
      13 C10       -2.2302   -1.7759   10.1968 C.3       1 <0>        -0.0859 
      14 C11       -3.5449   -1.0481   10.3460 C.ar      1 <0>        -0.1215 
      15 C12       -3.5826    0.3511   10.3250 C.ar      1 <0>        -0.0699 
      16 C13       -4.8002    1.0299   10.4557 C.ar      1 <0>        -0.1435 
      17 C14       -5.9875    0.3126   10.6060 C.ar      1 <0>         0.1289 
      18 C15       -5.9571   -1.0865   10.6432 C.ar      1 <0>        -0.2084 
      19 C16       -4.7373   -1.7618   10.5155 C.ar      1 <0>        -0.0704 
      20 O2        -7.1805    0.9779   10.7101 O.3       1 <0>        -0.2897 
      21 C17       -8.1420    0.4879   11.6485 C.3       1 <0>         0.0392 
      22 C18       -7.5573    0.5387   13.0398 C.2       1 <0>         0.5189 
      23 O3        -7.1978   -0.4991   13.5936 O.2       1 <0>        -0.5164 
      24 N3        -7.4315    1.7055   13.6655 N.am      1 <0>        -0.8500 
      25 C19       -0.3923    0.2502    0.4316 C.2       1 <0>         0.5100 
      26 O4        -0.0491    1.2441   -0.1361 O.2       1 <0>        -0.5069 
      27 O5        -0.5030   -0.9117   -0.2468 O.3       1 <0>        -0.3499 
      28 C20       -0.1989   -0.9042   -1.6441 C.3       1 <0>         0.0344 
      29 H1         0.1004    2.9572    5.2177 H         1 <0>         0.0741 
      30 H2        -1.6689    2.9393    5.3818 H         1 <0>         0.0756 
      31 H3        -0.9166    3.6782    3.9514 H         1 <0>         0.0654 
      32 H4        -0.2568    2.3796    2.0870 H         1 <0>         0.1419 
      33 H5        -1.2120   -1.7937    2.0023 H         1 <0>         0.1420 
      34 H6        -1.6658   -1.7289    4.4355 H         1 <0>         0.1513 
      35 H7        -1.5829    1.2413    6.5257 H         1 <0>         0.4099 
      36 H8        -1.9292    0.0914    8.4899 H         1 <0>         0.3991 
      37 H9        -1.0486   -2.6267    8.6130 H         1 <0>         0.0724 
      38 H10       -2.7987   -2.6267    8.3044 H         1 <0>         0.0717 
      39 H11       -1.4269   -1.1601   10.5956 H         1 <0>         0.0798 
      40 H12       -2.2719   -2.7166   10.7420 H         1 <0>         0.0807 
      41 H13       -2.6720    0.9202   10.2101 H         1 <0>         0.1319 
      42 H14       -4.8272    2.1094   10.4400 H         1 <0>         0.1348 
      43 H15       -6.8771   -1.6365   10.7744 H         1 <0>         0.1287 
      44 H16       -4.7275   -2.8412   10.5513 H         1 <0>         0.1269 
      45 H17       -8.3996   -0.5394   11.3999 H         1 <0>         0.0958 
      46 H18       -9.0359    1.1067   11.6073 H         1 <0>         0.0955 
      47 H19       -7.0404    1.7395   14.5961 H         1 <0>         0.4037 
      48 H20       -7.7269    2.5570   13.2098 H         1 <0>         0.4105 
      49 H21        0.8364   -0.6018   -1.7877 H         1 <0>         0.0617 
      50 H22       -0.3459   -1.9020   -2.0520 H         1 <0>         0.0616 
      51 H23       -0.8562   -0.2029   -2.1539 H         1 <0>         0.1040 
@<TRIPOS>BOND
       1        1        2 1        
       2        1       29 1        
       3        1       30 1        
       4        1       31 1        
       5        2        7 ar       
       6        2        3 ar       
       7        3        4 ar       
       8        3       32 1        
       9        4        5 ar       
      10        4       25 1        
      11        5        6 ar       
      12        5       33 1        
      13        6        7 ar       
      14        6       34 1        
      15        7        8 1        
      16        8        9 am       
      17        8       35 1        
      18        9       10 2        
      19        9       11 am       
      20       11       12 1        
      21       11       36 1        
      22       12       13 1        
      23       12       37 1        
      24       12       38 1        
      25       13       14 1        
      26       13       39 1        
      27       13       40 1        
      28       14       19 ar       
      29       14       15 ar       
      30       15       16 ar       
      31       15       41 1        
      32       16       17 ar       
      33       16       42 1        
      34       17       18 ar       
      35       17       20 1        
      36       18       19 ar       
      37       18       43 1        
      38       19       44 1        
      39       20       21 1        
      40       21       22 1        
      41       21       45 1        
      42       21       46 1        
      43       22       23 2        
      44       22       24 am       
      45       24       47 1        
      46       24       48 1        
      47       25       26 2        
      48       25       27 1        
      49       27       28 1        
      50       28       49 1        
      51       28       50 1        
      52       28       51 1        

