#        1GCZ_R01_S0001_C0000_L00007_S0001_C0021_G0010_E0001.mol2
#        Tue Jun  6 14:08:28 2017
#        Descriptor:      1    12     1    15    10    14
#        Energy - RMSD - RMSD MassCentre:     -62.8138    999.9999    999.9999
#        Receptor:       1  Surface Point:     1  Conformer:     0
#        Ligand:         7  Surface Point:     1  Conformer:    21
#        BUDE Formal Charge: 0
#        ATOM Count: 51
#        Heavy ATOM Count: 28
@<TRIPOS>MOLECULE
ZINC61408927_1GCZ_R01_S0001_C0000_L00007_S0001_C0021_G0010_E0001
 51 52 0 0 0
SMALL
USER_CHARGES
@<TRIPOS>ATOM
       1 C1         3.7501    4.2235    6.4389 C.3       1 <0>        -0.1139 
       2 C2         3.5253    2.7324    6.3648 C.ar      1 <0>        -0.1278 
       3 C3         2.4435    2.2399    5.6253 C.ar      1 <0>        -0.0331 
       4 C4         2.1514    0.8711    5.5904 C.ar      1 <0>        -0.1443 
       5 C5         2.9681   -0.0159    6.2939 C.ar      1 <0>        -0.0449 
       6 C6         4.0775    0.4632    7.0006 C.ar      1 <0>        -0.1321 
       7 C7         4.3699    1.8321    7.0250 C.ar      1 <0>         0.2027 
       8 N1         5.5160    2.2831    7.7218 N.am      1 <0>        -0.6834 
       9 C8         6.4223    1.4087    8.1495 C.2       1 <0>         0.7034 
      10 O1         6.2615    0.1876    7.9356 O.2       1 <0>        -0.5648 
      11 N2         7.4990    1.8341    8.8043 N.am      1 <0>        -0.7401 
      12 C9         8.5007    0.8676    9.2769 C.3       1 <0>         0.1407 
      13 C10        9.0849    0.1156    8.0822 C.3       1 <0>        -0.0859 
      14 C11        9.8018    1.0890    7.1773 C.ar      1 <0>        -0.1215 
      15 C12        9.1141    1.7192    6.1334 C.ar      1 <0>        -0.0699 
      16 C13        9.7730    2.6279    5.2967 C.ar      1 <0>        -0.1435 
      17 C14       11.1234    2.9132    5.5007 C.ar      1 <0>         0.1289 
      18 C15       11.8226    2.2762    6.5328 C.ar      1 <0>        -0.2084 
      19 C16       11.1612    1.3655    7.3656 C.ar      1 <0>        -0.0704 
      20 O2        11.7606    3.8203    4.6957 O.3       1 <0>        -0.2897 
      21 C17       13.0960    3.5249    4.2784 C.3       1 <0>         0.0392 
      22 C18       13.6089    4.6450    3.4051 C.2       1 <0>         0.5189 
      23 O3        14.4347    5.4412    3.8488 O.2       1 <0>        -0.5164 
      24 N3        13.1672    4.7698    2.1568 N.am      1 <0>        -0.8500 
      25 C19        0.9913    0.3631    4.8247 C.2       1 <0>         0.5100 
      26 O4         0.7555   -0.8083    4.8050 O.2       1 <0>        -0.5069 
      27 O5         0.2002    1.2232    4.1488 O.3       1 <0>        -0.3499 
      28 C20       -0.9089    0.6858    3.4233 C.3       1 <0>         0.0344 
      29 H1         4.8178    4.4305    6.4113 H         1 <0>         0.0741 
      30 H2         3.3296    4.6075    7.3661 H         1 <0>         0.0756 
      31 H3         3.2646    4.7054    5.5928 H         1 <0>         0.0654 
      32 H4         1.8200    2.9219    5.0664 H         1 <0>         0.1419 
      33 H5         2.7481   -1.0732    6.2968 H         1 <0>         0.1420 
      34 H6         4.7196   -0.2243    7.5310 H         1 <0>         0.1513 
      35 H7         5.6458    3.2696    7.8946 H         1 <0>         0.4099 
      36 H8         7.6279    2.8209    8.9765 H         1 <0>         0.3991 
      37 H9         8.0291    0.1604    9.9561 H         1 <0>         0.0724 
      38 H10        9.2962    1.3962    9.7979 H         1 <0>         0.0717 
      39 H11        8.2815   -0.3685    7.5310 H         1 <0>         0.0798 
      40 H12        9.7872   -0.6364    8.4359 H         1 <0>         0.0807 
      41 H13        8.0689    1.5082    5.9625 H         1 <0>         0.1319 
      42 H14        9.2409    3.1126    4.4915 H         1 <0>         0.1348 
      43 H15       12.8713    2.4896    6.6773 H         1 <0>         0.1287 
      44 H16       11.7138    0.8772    8.1546 H         1 <0>         0.1269 
      45 H17       13.1018    2.5938    3.7156 H         1 <0>         0.0958 
      46 H18       13.7350    3.4247    5.1532 H         1 <0>         0.0955 
      47 H19       12.4892    4.1154    1.7935 H         1 <0>         0.4037 
      48 H20       13.5103    5.5189    1.5727 H         1 <0>         0.4105 
      49 H21       -1.5818    0.1803    4.1128 H         1 <0>         0.0617 
      50 H22       -1.4400    1.4932    2.9236 H         1 <0>         0.0616 
      51 H23       -0.5472   -0.0241    2.6826 H         1 <0>         0.1040 
@<TRIPOS>BOND
       1        1        2 1        
       2        1       29 1        
       3        1       30 1        
       4        1       31 1        
       5        2        7 ar       
       6        2        3 ar       
       7        3        4 ar       
       8        3       32 1        
       9        4        5 ar       
      10        4       25 1        
      11        5        6 ar       
      12        5       33 1        
      13        6        7 ar       
      14        6       34 1        
      15        7        8 1        
      16        8        9 am       
      17        8       35 1        
      18        9       10 2        
      19        9       11 am       
      20       11       12 1        
      21       11       36 1        
      22       12       13 1        
      23       12       37 1        
      24       12       38 1        
      25       13       14 1        
      26       13       39 1        
      27       13       40 1        
      28       14       19 ar       
      29       14       15 ar       
      30       15       16 ar       
      31       15       41 1        
      32       16       17 ar       
      33       16       42 1        
      34       17       18 ar       
      35       17       20 1        
      36       18       19 ar       
      37       18       43 1        
      38       19       44 1        
      39       20       21 1        
      40       21       22 1        
      41       21       45 1        
      42       21       46 1        
      43       22       23 2        
      44       22       24 am       
      45       24       47 1        
      46       24       48 1        
      47       25       26 2        
      48       25       27 1        
      49       27       28 1        
      50       28       49 1        
      51       28       50 1        
      52       28       51 1        

