#        1GCZ_R01_S0001_C0000_L00003_S0001_C0003_G0010_E0001.mol2
#        Tue Jun  6 14:03:31 2017
#        Descriptor:     31     6    31    15     3    12
#        Energy - RMSD - RMSD MassCentre:     -54.9210    999.9999    999.9999
#        Receptor:       1  Surface Point:     1  Conformer:     0
#        Ligand:         3  Surface Point:     1  Conformer:     3
#        BUDE Formal Charge: 0
#        ATOM Count: 58
#        Heavy ATOM Count: 30
@<TRIPOS>MOLECULE
ZINC61580633_1GCZ_R01_S0001_C0000_L00003_S0001_C0003_G0010_E0001
 58 59 0 0 0
SMALL
USER_CHARGES
@<TRIPOS>ATOM
       1 C1         9.3785   -9.8106    2.4448 C.3       1 <0>        -0.1532 
       2 C2         9.3099   -8.5243    1.6268 C.3       1 <0>        -0.1224 
       3 C3        10.6224   -7.7561    1.7759 C.3       1 <0>        -0.1198 
       4 C4        10.5537   -6.4681    0.9567 C.3       1 <0>         0.0610 
       5 O1         9.5167   -5.6302    1.4738 O.3       1 <0>        -0.3878 
       6 C5         9.4050   -4.4055    0.7439 C.3       1 <0>         0.0487 
       7 C6         8.2841   -3.5572    1.3427 C.3       1 <0>         0.1244 
       8 N1         8.7152   -3.0245    2.6431 N.am      1 <0>        -0.7216 
       9 C7         9.6296   -2.0601    2.6961 C.2       1 <0>         0.5161 
      10 O2        10.1146   -1.6137    1.6579 O.2       1 <0>        -0.5151 
      11 C8        10.0724   -1.5129    4.0321 C.3       1 <0>         0.0490 
      12 O3         9.0047   -0.7624    4.6164 O.3       1 <0>        -0.3194 
      13 C9         7.8646   -1.4168    4.9236 C.2       1 <0>         0.5417 
      14 O4         7.7680   -2.6126    4.7016 O.2       1 <0>        -0.5337 
      15 C10        6.7313   -0.6835    5.5301 C.2       1 <0>        -0.2559 
      16 C11        6.7468    0.7608    5.8531 C.2       1 <0>        -0.0791 
      17 C12        5.6026    1.1708    6.4054 C.2       1 <0>        -0.2585 
      18 S1         4.4202   -0.1352    6.5753 S.3       1 <0>         0.3028 
      19 C13        5.5730   -1.2712    5.8590 C.2       1 <0>         0.0893 
      20 N2         5.3497   -2.6077    5.6564 N.am      1 <0>        -0.6099 
      21 C14        4.1834   -3.1473    5.9991 C.2       1 <0>         0.5551 
      22 O5         3.3046   -2.4461    6.4981 O.2       1 <0>        -0.4939 
      23 C15        3.9437   -4.5912    5.7796 C.ar      1 <0>        -0.1466 
      24 C16        2.7030   -5.1182    6.1578 C.ar      1 <0>        -0.0772 
      25 C17        2.4438   -6.4891    6.0433 C.ar      1 <0>        -0.1241 
      26 C18        3.4253   -7.3609    5.5576 C.ar      1 <0>        -0.0446 
      27 C19        4.6476   -6.8297    5.1290 C.ar      1 <0>        -0.1261 
      28 C20        4.8922   -5.4541    5.2179 C.ar      1 <0>        -0.0460 
      29 C21        3.1481   -8.8442    5.5001 C.3       1 <0>        -0.0928 
      30 C22        3.5865   -9.4938    6.8095 C.3       1 <0>        -0.1485 
      31 H1         9.5255   -9.5647    3.4945 H         1 <0>         0.0567 
      32 H2        10.2099  -10.4185    2.0944 H         1 <0>         0.0554 
      33 H3         8.4493  -10.3641    2.3280 H         1 <0>         0.0557 
      34 H4         9.1504   -8.7685    0.5786 H         1 <0>         0.0632 
      35 H5         8.4875   -7.9089    1.9856 H         1 <0>         0.0635 
      36 H6        10.7826   -7.5107    2.8236 H         1 <0>         0.0711 
      37 H7        11.4455   -8.3703    1.4166 H         1 <0>         0.0704 
      38 H8        11.5062   -5.9461    1.0199 H         1 <0>         0.0498 
      39 H9        10.3397   -6.7095   -0.0824 H         1 <0>         0.0505 
      40 H10        9.1778   -4.6227   -0.2976 H         1 <0>         0.0584 
      41 H11       10.3441   -3.8595    0.8047 H         1 <0>         0.0702 
      42 H12        7.3969   -4.1718    1.4794 H         1 <0>         0.0872 
      43 H13        8.0549   -2.7322    0.6716 H         1 <0>         0.0805 
      44 H14        8.3175   -3.3903    3.4964 H         1 <0>         0.4058 
      45 H15       10.3394   -2.3360    4.6914 H         1 <0>         0.1008 
      46 H16       10.9353   -0.8654    3.8914 H         1 <0>         0.0999 
      47 H17        7.5954    1.3955    5.6451 H         1 <0>         0.1557 
      48 H18        5.4285    2.1954    6.6988 H         1 <0>         0.1929 
      49 H19        6.0712   -3.1835    5.2467 H         1 <0>         0.4317 
      50 H20        1.9376   -4.4628    6.5464 H         1 <0>         0.1287 
      51 H21        1.4808   -6.8833    6.3324 H         1 <0>         0.1326 
      52 H22        5.3967   -7.4949    4.7256 H         1 <0>         0.1342 
      53 H23        5.8288   -5.0949    4.8176 H         1 <0>         0.1410 
      54 H24        3.7016   -9.2841    4.6732 H         1 <0>         0.0777 
      55 H25        2.0828   -9.0080    5.3521 H         1 <0>         0.0771 
      56 H26        3.0234   -9.0619    7.6341 H         1 <0>         0.0623 
      57 H27        4.6490   -9.3172    6.9633 H         1 <0>         0.0572 
      58 H28        3.3991  -10.5645    6.7628 H         1 <0>         0.0578 
@<TRIPOS>BOND
       1        1        2 1        
       2        1       31 1        
       3        1       32 1        
       4        1       33 1        
       5        2        3 1        
       6        2       34 1        
       7        2       35 1        
       8        3        4 1        
       9        3       36 1        
      10        3       37 1        
      11        4        5 1        
      12        4       38 1        
      13        4       39 1        
      14        5        6 1        
      15        6        7 1        
      16        6       40 1        
      17        6       41 1        
      18        7        8 1        
      19        7       42 1        
      20        7       43 1        
      21        8        9 am       
      22        8       44 1        
      23        9       10 2        
      24        9       11 1        
      25       11       12 1        
      26       11       45 1        
      27       11       46 1        
      28       12       13 1        
      29       13       14 2        
      30       13       15 1        
      31       15       19 2        
      32       15       16 1        
      33       16       17 2        
      34       16       47 1        
      35       17       18 1        
      36       17       48 1        
      37       18       19 1        
      38       19       20 1        
      39       20       21 am       
      40       20       49 1        
      41       21       22 2        
      42       21       23 1        
      43       23       28 ar       
      44       23       24 ar       
      45       24       25 ar       
      46       24       50 1        
      47       25       26 ar       
      48       25       51 1        
      49       26       27 ar       
      50       26       29 1        
      51       27       28 ar       
      52       27       52 1        
      53       28       53 1        
      54       29       30 1        
      55       29       54 1        
      56       29       55 1        
      57       30       56 1        
      58       30       57 1        
      59       30       58 1        

