#        1GCZ_R01_S0001_C0000_L00007_S0001_C0022_G0010_E0001.mol2
#        Tue Jun  6 09:56:41 2017
#        Descriptor:     12    12    17     8    12    13
#        Energy - RMSD - RMSD MassCentre:     -63.6540    999.9999    999.9999
#        Receptor:       1  Surface Point:     1  Conformer:     0
#        Ligand:         7  Surface Point:     1  Conformer:    22
#        BUDE Formal Charge: 0
#        ATOM Count: 51
#        Heavy ATOM Count: 28
@<TRIPOS>MOLECULE
ZINC61408927_1GCZ_R01_S0001_C0000_L00007_S0001_C0022_G0010_E0001
 51 52 0 0 0
SMALL
USER_CHARGES
@<TRIPOS>ATOM
       1 C1         2.9658    6.5499    5.6331 C.3       1 <0>        -0.1139 
       2 C2         1.7637    6.6976    6.5346 C.ar      1 <0>        -0.1278 
       3 C3         1.3003    7.9799    6.8517 C.ar      1 <0>        -0.0331 
       4 C4         0.2373    8.1676    7.7433 C.ar      1 <0>        -0.1443 
       5 C5        -0.3792    7.0507    8.3099 C.ar      1 <0>        -0.0449 
       6 C6         0.0493    5.7634    7.9651 C.ar      1 <0>        -0.1321 
       7 C7         1.1071    5.5814    7.0663 C.ar      1 <0>         0.2027 
       8 N1         1.4972    4.2679    6.7128 N.am      1 <0>        -0.6834 
       9 C8         0.7304    3.2333    7.0451 C.2       1 <0>         0.7034 
      10 O1        -0.3357    3.4214    7.6701 O.2       1 <0>        -0.5648 
      11 N2         1.0984    1.9993    6.7121 N.am      1 <0>        -0.7401 
      12 C9         0.2508    0.8558    7.0794 C.3       1 <0>         0.1407 
      13 C10       -1.1203    1.0076    6.4226 C.3       1 <0>        -0.0859 
      14 C11       -0.9642    0.9784    4.9210 C.ar      1 <0>        -0.1215 
      15 C12       -0.7629    2.1672    4.2095 C.ar      1 <0>        -0.0699 
      16 C13       -0.6104    2.1440    2.8181 C.ar      1 <0>        -0.1435 
      17 C14       -0.6564    0.9310    2.1301 C.ar      1 <0>         0.1289 
      18 C15       -0.8724   -0.2609    2.8320 C.ar      1 <0>        -0.2084 
      19 C16       -1.0278   -0.2336    4.2231 C.ar      1 <0>        -0.0704 
      20 O2        -0.4835    0.9076    0.7714 O.3       1 <0>        -0.2897 
      21 C17       -1.3089    0.0263    0.0052 C.3       1 <0>         0.0392 
      22 C18       -0.9589    0.1553   -1.4580 C.2       1 <0>         0.5189 
      23 O3        -0.3180   -0.7332   -2.0172 O.2       1 <0>        -0.5164 
      24 N3        -1.3439    1.2296   -2.1411 N.am      1 <0>        -0.8500 
      25 C19       -0.2296    9.5285    8.0901 C.2       1 <0>         0.5100 
      26 O4        -1.1382    9.6717    8.8529 O.2       1 <0>        -0.5069 
      27 O5         0.3711   10.6073    7.5443 O.3       1 <0>        -0.3499 
      28 C20       -0.1147   11.9018    7.9093 C.3       1 <0>         0.0344 
      29 H1         2.8215    5.6962    4.9742 H         1 <0>         0.0741 
      30 H2         3.8560    6.3943    6.2392 H         1 <0>         0.0756 
      31 H3         3.0849    7.4525    5.0376 H         1 <0>         0.0654 
      32 H4         1.7643    8.8452    6.4018 H         1 <0>         0.1419 
      33 H5        -1.1872    7.1743    9.0157 H         1 <0>         0.1420 
      34 H6        -0.4385    4.8986    8.3900 H         1 <0>         0.1513 
      35 H7         2.3585    4.1160    6.2078 H         1 <0>         0.4099 
      36 H8         1.9600    1.8485    6.2071 H         1 <0>         0.3991 
      37 H9         0.1343    0.8241    8.1607 H         1 <0>         0.0724 
      38 H10        0.7176   -0.0655    6.7372 H         1 <0>         0.0717 
      39 H11       -1.5630    1.9548    6.7235 H         1 <0>         0.0798 
      40 H12       -1.7649    0.1893    6.7369 H         1 <0>         0.0807 
      41 H13       -0.7256    3.1139    4.7278 H         1 <0>         0.1319 
      42 H14       -0.4557    3.0622    2.2710 H         1 <0>         0.1348 
      43 H15       -0.9217   -1.1956    2.2931 H         1 <0>         0.1287 
      44 H16       -1.1991   -1.1598    4.7515 H         1 <0>         0.1269 
      45 H17       -2.3542    0.2893    0.1533 H         1 <0>         0.0958 
      46 H18       -1.1426   -0.9988    0.3295 H         1 <0>         0.0955 
      47 H19       -1.1098    1.3158   -3.1198 H         1 <0>         0.4037 
      48 H20       -1.8701    1.9584   -1.6810 H         1 <0>         0.4105 
      49 H21       -0.0032   12.0411    8.9826 H         1 <0>         0.0617 
      50 H22        0.4555   12.6642    7.3829 H         1 <0>         0.0616 
      51 H23       -1.1656   11.9834    7.6397 H         1 <0>         0.1040 
@<TRIPOS>BOND
       1        1        2 1        
       2        1       29 1        
       3        1       30 1        
       4        1       31 1        
       5        2        7 ar       
       6        2        3 ar       
       7        3        4 ar       
       8        3       32 1        
       9        4        5 ar       
      10        4       25 1        
      11        5        6 ar       
      12        5       33 1        
      13        6        7 ar       
      14        6       34 1        
      15        7        8 1        
      16        8        9 am       
      17        8       35 1        
      18        9       10 2        
      19        9       11 am       
      20       11       12 1        
      21       11       36 1        
      22       12       13 1        
      23       12       37 1        
      24       12       38 1        
      25       13       14 1        
      26       13       39 1        
      27       13       40 1        
      28       14       19 ar       
      29       14       15 ar       
      30       15       16 ar       
      31       15       41 1        
      32       16       17 ar       
      33       16       42 1        
      34       17       18 ar       
      35       17       20 1        
      36       18       19 ar       
      37       18       43 1        
      38       19       44 1        
      39       20       21 1        
      40       21       22 1        
      41       21       45 1        
      42       21       46 1        
      43       22       23 2        
      44       22       24 am       
      45       24       47 1        
      46       24       48 1        
      47       25       26 2        
      48       25       27 1        
      49       27       28 1        
      50       28       49 1        
      51       28       50 1        
      52       28       51 1        

