#        1GCZ_R01_S0001_C0000_L00007_S0001_C0023_G0010_E0001.mol2
#        Tue Jun  6 14:08:32 2017
#        Descriptor:     11    35    28    15     9    12
#        Energy - RMSD - RMSD MassCentre:     -61.7008    999.9999    999.9999
#        Receptor:       1  Surface Point:     1  Conformer:     0
#        Ligand:         7  Surface Point:     1  Conformer:    23
#        BUDE Formal Charge: 0
#        ATOM Count: 51
#        Heavy ATOM Count: 28
@<TRIPOS>MOLECULE
ZINC61408927_1GCZ_R01_S0001_C0000_L00007_S0001_C0023_G0010_E0001
 51 52 0 0 0
SMALL
USER_CHARGES
@<TRIPOS>ATOM
       1 C1         2.5662   -0.1659    7.8072 C.3       1 <0>        -0.1139 
       2 C2         2.3567   -0.1167    6.3128 C.ar      1 <0>        -0.1278 
       3 C3         1.0552   -0.1878    5.8022 C.ar      1 <0>        -0.0331 
       4 C4         0.8176   -0.2224    4.4229 C.ar      1 <0>        -0.1443 
       5 C5         1.9018   -0.1671    3.5453 C.ar      1 <0>        -0.0449 
       6 C6         3.2038   -0.0521    4.0464 C.ar      1 <0>        -0.1321 
       7 C7         3.4349   -0.0092    5.4265 C.ar      1 <0>         0.2027 
       8 N1         4.7593    0.1391    5.9026 N.am      1 <0>        -0.6834 
       9 C8         5.7371    0.4622    5.0611 C.2       1 <0>         0.7034 
      10 O1         5.4862    0.6350    3.8488 O.2       1 <0>        -0.5648 
      11 N2         6.9814    0.6012    5.5100 N.am      1 <0>        -0.7401 
      12 C9         8.0622    0.9583    4.5799 C.3       1 <0>         0.1407 
      13 C10        9.3810    1.0538    5.3455 C.3       1 <0>        -0.0859 
      14 C11       10.4913    1.4206    4.3901 C.ar      1 <0>        -0.1215 
      15 C12       11.2226    0.4189    3.7407 C.ar      1 <0>        -0.0699 
      16 C13       12.2480    0.7546    2.8485 C.ar      1 <0>        -0.1435 
      17 C14       12.5465    2.0945    2.5991 C.ar      1 <0>         0.1289 
      18 C15       11.8303    3.1024    3.2556 C.ar      1 <0>        -0.2084 
      19 C16       10.8078    2.7629    4.1496 C.ar      1 <0>        -0.0704 
      20 O2        13.5345    2.4212    1.7081 O.3       1 <0>        -0.2897 
      21 C17       14.4025    3.5087    2.0380 C.3       1 <0>         0.0392 
      22 C18       15.4111    3.7004    0.9307 C.2       1 <0>         0.5189 
      23 O3        15.3013    4.6503    0.1569 O.2       1 <0>        -0.5164 
      24 N3        16.4176    2.8419    0.7927 N.am      1 <0>        -0.8500 
      25 C19       -0.5610   -0.3215    3.8936 C.2       1 <0>         0.5100 
      26 O4        -1.4875   -0.3728    4.6466 O.2       1 <0>        -0.5069 
      27 O5        -0.7710   -0.3537    2.5605 O.3       1 <0>        -0.3499 
      28 C20       -2.1200   -0.4498    2.0960 C.3       1 <0>         0.0344 
      29 H1         3.3714    0.5121    8.0823 H         1 <0>         0.0741 
      30 H2         2.8282   -1.1797    8.1029 H         1 <0>         0.0756 
      31 H3         1.6502    0.1345    8.3114 H         1 <0>         0.0654 
      32 H4         0.2136   -0.2137    6.4785 H         1 <0>         0.1419 
      33 H5         1.7415   -0.2132    2.4783 H         1 <0>         0.1420 
      34 H6         4.0417    0.0080    3.3677 H         1 <0>         0.1513 
      35 H7         4.9620   -0.0005    6.8820 H         1 <0>         0.4099 
      36 H8         7.1831    0.4613    6.4897 H         1 <0>         0.3991 
      37 H9         7.8399    1.9180    4.1180 H         1 <0>         0.0724 
      38 H10        8.1438    0.1945    3.8094 H         1 <0>         0.0717 
      39 H11        9.6017    0.0938    5.8075 H         1 <0>         0.0798 
      40 H12        9.2979    1.8174    6.1161 H         1 <0>         0.0807 
      41 H13       11.0037   -0.6226    3.9239 H         1 <0>         0.1319 
      42 H14       12.8114   -0.0196    2.3490 H         1 <0>         0.1348 
      43 H15       12.0752    4.1378    3.0702 H         1 <0>         0.1287 
      44 H16       10.2668    3.5504    4.6534 H         1 <0>         0.1269 
      45 H17       14.9217    3.2882    2.9682 H         1 <0>         0.0958 
      46 H18       13.8156    4.4174    2.1562 H         1 <0>         0.0955 
      47 H19       16.5066    2.0623    1.4286 H         1 <0>         0.4037 
      48 H20       17.0922    2.9700    0.0520 H         1 <0>         0.4105 
      49 H21       -2.6840    0.4146    2.4403 H         1 <0>         0.0617 
      50 H22       -2.1274   -0.4787    1.0084 H         1 <0>         0.0616 
      51 H23       -2.5735   -1.3584    2.4865 H         1 <0>         0.1040 
@<TRIPOS>BOND
       1        1        2 1        
       2        1       29 1        
       3        1       30 1        
       4        1       31 1        
       5        2        7 ar       
       6        2        3 ar       
       7        3        4 ar       
       8        3       32 1        
       9        4        5 ar       
      10        4       25 1        
      11        5        6 ar       
      12        5       33 1        
      13        6        7 ar       
      14        6       34 1        
      15        7        8 1        
      16        8        9 am       
      17        8       35 1        
      18        9       10 2        
      19        9       11 am       
      20       11       12 1        
      21       11       36 1        
      22       12       13 1        
      23       12       37 1        
      24       12       38 1        
      25       13       14 1        
      26       13       39 1        
      27       13       40 1        
      28       14       19 ar       
      29       14       15 ar       
      30       15       16 ar       
      31       15       41 1        
      32       16       17 ar       
      33       16       42 1        
      34       17       18 ar       
      35       17       20 1        
      36       18       19 ar       
      37       18       43 1        
      38       19       44 1        
      39       20       21 1        
      40       21       22 1        
      41       21       45 1        
      42       21       46 1        
      43       22       23 2        
      44       22       24 am       
      45       24       47 1        
      46       24       48 1        
      47       25       26 2        
      48       25       27 1        
      49       27       28 1        
      50       28       49 1        
      51       28       50 1        
      52       28       51 1        

