#        1GCZ_R01_S0001_C0000_L00007_S0001_C0025_G0010_E0001.mol2
#        Tue Jun  6 14:08:36 2017
#        Descriptor:     35    19    33     5     9    15
#        Energy - RMSD - RMSD MassCentre:     -57.6023    999.9999    999.9999
#        Receptor:       1  Surface Point:     1  Conformer:     0
#        Ligand:         7  Surface Point:     1  Conformer:    25
#        BUDE Formal Charge: 0
#        ATOM Count: 51
#        Heavy ATOM Count: 28
@<TRIPOS>MOLECULE
ZINC61408927_1GCZ_R01_S0001_C0000_L00007_S0001_C0025_G0010_E0001
 51 52 0 0 0
SMALL
USER_CHARGES
@<TRIPOS>ATOM
       1 C1         0.5476    2.6336    5.3418 C.3       1 <0>        -0.1139 
       2 C2        -0.0592    1.6117    4.4106 C.ar      1 <0>        -0.1278 
       3 C3         0.2987    1.6223    3.0572 C.ar      1 <0>        -0.0331 
       4 C4        -0.2948    0.7439    2.1427 C.ar      1 <0>        -0.1443 
       5 C5        -1.2477   -0.1690    2.5981 C.ar      1 <0>        -0.0449 
       6 C6        -1.5798   -0.2159    3.9572 C.ar      1 <0>        -0.1321 
       7 C7        -0.9769    0.6590    4.8687 C.ar      1 <0>         0.2027 
       8 N1        -1.3096    0.5666    6.2410 N.am      1 <0>        -0.6834 
       9 C8        -2.0028   -0.4760    6.6894 C.2       1 <0>         0.7034 
      10 O1        -2.3607   -1.3750    5.8981 O.2       1 <0>        -0.5648 
      11 N2        -2.3148   -0.5614    7.9796 N.am      1 <0>        -0.7401 
      12 C9        -3.0811   -1.7138    8.4752 C.3       1 <0>         0.1407 
      13 C10       -3.3030   -1.5676    9.9798 C.3       1 <0>        -0.0859 
      14 C11       -4.1339   -0.3355   10.2478 C.ar      1 <0>        -0.1215 
      15 C12       -3.5130    0.8999   10.4663 C.ar      1 <0>        -0.0699 
      16 C13       -4.2797    2.0463   10.7080 C.ar      1 <0>        -0.1435 
      17 C14       -5.6723    1.9636   10.7303 C.ar      1 <0>         0.1289 
      18 C15       -6.3010    0.7293   10.5277 C.ar      1 <0>        -0.2084 
      19 C16       -5.5309   -0.4155   10.2897 C.ar      1 <0>        -0.0704 
      20 O2        -6.4214    3.0905   10.9436 O.3       1 <0>        -0.2897 
      21 C17       -7.5749    2.9805   11.7818 C.3       1 <0>         0.0392 
      22 C18       -8.2519    4.3264   11.8840 C.2       1 <0>         0.5189 
      23 O3        -9.3029    4.5331   11.2791 O.2       1 <0>        -0.5164 
      24 N3        -7.7115    5.2874   12.6278 N.am      1 <0>        -0.8500 
      25 C19        0.0734    0.7793    0.7097 C.2       1 <0>         0.5100 
      26 O4         0.8864    1.5642    0.3212 O.2       1 <0>        -0.5069 
      27 O5        -0.5094   -0.0754   -0.1577 O.3       1 <0>        -0.3499 
      28 C20       -0.1218   -0.0042   -1.5324 C.3       1 <0>         0.0344 
      29 H1         1.3711    2.1804    5.8895 H         1 <0>         0.0741 
      30 H2        -0.2091    2.9784    6.0435 H         1 <0>         0.0756 
      31 H3         0.9171    3.4771    4.7625 H         1 <0>         0.0654 
      32 H4         1.0478    2.3160    2.7052 H         1 <0>         0.1419 
      33 H5        -1.7323   -0.8411    1.9055 H         1 <0>         0.1420 
      34 H6        -2.3044   -0.9335    4.3129 H         1 <0>         0.1513 
      35 H7        -1.0204    1.2930    6.8804 H         1 <0>         0.4099 
      36 H8        -2.0251    0.1655    8.6181 H         1 <0>         0.3991 
      37 H9        -2.5273   -2.6291    8.2768 H         1 <0>         0.0724 
      38 H10       -4.0429   -1.7541    7.9682 H         1 <0>         0.0717 
      39 H11       -2.3416   -1.4732   10.4801 H         1 <0>         0.0798 
      40 H12       -3.8238   -2.4458   10.3559 H         1 <0>         0.0807 
      41 H13       -2.4361    0.9797   10.4528 H         1 <0>         0.1319 
      42 H14       -3.7988    2.9983   10.8770 H         1 <0>         0.1348 
      43 H15       -7.3787    0.6681   10.5606 H         1 <0>         0.1287 
      44 H16       -6.0287   -1.3624   10.1403 H         1 <0>         0.1269 
      45 H17       -7.2718    2.6501   12.7731 H         1 <0>         0.0958 
      46 H18       -8.2661    2.2577   11.3535 H         1 <0>         0.0955 
      47 H19       -6.8486    5.1165   13.1239 H         1 <0>         0.4037 
      48 H20       -8.1644    6.1876   12.6961 H         1 <0>         0.4105 
      49 H21        0.9430   -0.2106   -1.6195 H         1 <0>         0.0617 
      50 H22       -0.6825   -0.7397   -2.1053 H         1 <0>         0.0616 
      51 H23       -0.3312    0.9920   -1.9164 H         1 <0>         0.1040 
@<TRIPOS>BOND
       1        1        2 1        
       2        1       29 1        
       3        1       30 1        
       4        1       31 1        
       5        2        7 ar       
       6        2        3 ar       
       7        3        4 ar       
       8        3       32 1        
       9        4        5 ar       
      10        4       25 1        
      11        5        6 ar       
      12        5       33 1        
      13        6        7 ar       
      14        6       34 1        
      15        7        8 1        
      16        8        9 am       
      17        8       35 1        
      18        9       10 2        
      19        9       11 am       
      20       11       12 1        
      21       11       36 1        
      22       12       13 1        
      23       12       37 1        
      24       12       38 1        
      25       13       14 1        
      26       13       39 1        
      27       13       40 1        
      28       14       19 ar       
      29       14       15 ar       
      30       15       16 ar       
      31       15       41 1        
      32       16       17 ar       
      33       16       42 1        
      34       17       18 ar       
      35       17       20 1        
      36       18       19 ar       
      37       18       43 1        
      38       19       44 1        
      39       20       21 1        
      40       21       22 1        
      41       21       45 1        
      42       21       46 1        
      43       22       23 2        
      44       22       24 am       
      45       24       47 1        
      46       24       48 1        
      47       25       26 2        
      48       25       27 1        
      49       27       28 1        
      50       28       49 1        
      51       28       50 1        
      52       28       51 1        

