#        1GCZ_R01_S0001_C0000_L00007_S0001_C0026_G0010_E0001.mol2
#        Tue Jun  6 09:56:45 2017
#        Descriptor:     16    23    13    10     8    13
#        Energy - RMSD - RMSD MassCentre:     -60.4005    999.9999    999.9999
#        Receptor:       1  Surface Point:     1  Conformer:     0
#        Ligand:         7  Surface Point:     1  Conformer:    26
#        BUDE Formal Charge: 0
#        ATOM Count: 51
#        Heavy ATOM Count: 28
@<TRIPOS>MOLECULE
ZINC61408927_1GCZ_R01_S0001_C0000_L00007_S0001_C0026_G0010_E0001
 51 52 0 0 0
SMALL
USER_CHARGES
@<TRIPOS>ATOM
       1 C1         4.5852    2.3512    7.4068 C.3       1 <0>        -0.1139 
       2 C2         4.4281    0.9647    7.9835 C.ar      1 <0>        -0.1278 
       3 C3         5.3834    0.4888    8.8895 C.ar      1 <0>        -0.0331 
       4 C4         5.3206   -0.8167    9.3913 C.ar      1 <0>        -0.1443 
       5 C5         4.2738   -1.6488    8.9907 C.ar      1 <0>        -0.0449 
       6 C6         3.2900   -1.1671    8.1190 C.ar      1 <0>        -0.1321 
       7 C7         3.3530    0.1421    7.6270 C.ar      1 <0>         0.2027 
       8 N1         2.3272    0.6108    6.7724 N.am      1 <0>        -0.6834 
       9 C8         1.2100   -0.0952    6.6236 C.2       1 <0>         0.7034 
      10 O1         1.0660   -1.1736    7.2392 O.2       1 <0>        -0.5648 
      11 N2         0.2466    0.3467    5.8200 N.am      1 <0>        -0.7401 
      12 C9        -0.9882   -0.4337    5.6556 C.3       1 <0>         0.1407 
      13 C10       -1.9219    0.2902    4.6867 C.3       1 <0>        -0.0859 
      14 C11       -1.2682    0.3755    3.3281 C.ar      1 <0>        -0.1215 
      15 C12       -0.4696    1.4767    2.9978 C.ar      1 <0>        -0.0699 
      16 C13        0.1443    1.5565    1.7419 C.ar      1 <0>        -0.1435 
      17 C14       -0.0356    0.5338    0.8100 C.ar      1 <0>         0.1289 
      18 C15       -0.8449   -0.5638    1.1266 C.ar      1 <0>        -0.2084 
      19 C16       -1.4598   -0.6385    2.3821 C.ar      1 <0>        -0.0704 
      20 O2         0.5848    0.6023   -0.4095 O.3       1 <0>        -0.2897 
      21 C17       -0.1523    0.1837   -1.5614 C.3       1 <0>         0.0392 
      22 C18        0.7087    0.3385   -2.7922 C.2       1 <0>         0.5189 
      23 O3         1.1921   -0.6551   -3.3330 O.2       1 <0>        -0.5164 
      24 N3         0.9439    1.5488   -3.2908 N.am      1 <0>        -0.8500 
      25 C19        6.3489   -1.3178   10.3304 C.2       1 <0>         0.5100 
      26 O4         7.2464   -0.6052   10.6690 O.2       1 <0>        -0.5069 
      27 O5         6.2721   -2.5796   10.8040 O.3       1 <0>        -0.3499 
      28 C20        7.2883   -3.0194   11.7090 C.3       1 <0>         0.0344 
      29 H1         3.9439    3.0433    7.9483 H         1 <0>         0.0741 
      30 H2         4.3024    2.3404    6.3562 H         1 <0>         0.0756 
      31 H3         5.6220    2.6671    7.5008 H         1 <0>         0.0654 
      32 H4         6.1848    1.1358    9.2142 H         1 <0>         0.1419 
      33 H5         4.2185   -2.6657    9.3500 H         1 <0>         0.1420 
      34 H6         2.4706   -1.8048    7.8221 H         1 <0>         0.1513 
      35 H7         2.4435    1.4821    6.2750 H         1 <0>         0.4099 
      36 H8         0.3639    1.2181    5.3231 H         1 <0>         0.3991 
      37 H9        -1.4791   -0.5422    6.6205 H         1 <0>         0.0724 
      38 H10       -0.7448   -1.4173    5.2592 H         1 <0>         0.0717 
      39 H11       -2.1213    1.2933    5.0575 H         1 <0>         0.0798 
      40 H12       -2.8571   -0.2600    4.6059 H         1 <0>         0.0807 
      41 H13       -0.3214    2.2764    3.7082 H         1 <0>         0.1319 
      42 H14        0.7595    2.4071    1.4887 H         1 <0>         0.1348 
      43 H15       -0.9926   -1.3455    0.3963 H         1 <0>         0.1287 
      44 H16       -2.0859   -1.4883    2.6113 H         1 <0>         0.1269 
      45 H17       -1.0447    0.7975   -1.6628 H         1 <0>         0.0958 
      46 H18       -0.4396   -0.8595   -1.4479 H         1 <0>         0.0955 
      47 H19        1.5197    1.6523   -4.1140 H         1 <0>         0.4037 
      48 H20        0.5465    2.3638   -2.8460 H         1 <0>         0.4105 
      49 H21        7.2769   -2.3928   12.5984 H         1 <0>         0.0617 
      50 H22        7.0998   -4.0533   11.9904 H         1 <0>         0.0616 
      51 H23        8.2602   -2.9460   11.2255 H         1 <0>         0.1040 
@<TRIPOS>BOND
       1        1        2 1        
       2        1       29 1        
       3        1       30 1        
       4        1       31 1        
       5        2        7 ar       
       6        2        3 ar       
       7        3        4 ar       
       8        3       32 1        
       9        4        5 ar       
      10        4       25 1        
      11        5        6 ar       
      12        5       33 1        
      13        6        7 ar       
      14        6       34 1        
      15        7        8 1        
      16        8        9 am       
      17        8       35 1        
      18        9       10 2        
      19        9       11 am       
      20       11       12 1        
      21       11       36 1        
      22       12       13 1        
      23       12       37 1        
      24       12       38 1        
      25       13       14 1        
      26       13       39 1        
      27       13       40 1        
      28       14       19 ar       
      29       14       15 ar       
      30       15       16 ar       
      31       15       41 1        
      32       16       17 ar       
      33       16       42 1        
      34       17       18 ar       
      35       17       20 1        
      36       18       19 ar       
      37       18       43 1        
      38       19       44 1        
      39       20       21 1        
      40       21       22 1        
      41       21       45 1        
      42       21       46 1        
      43       22       23 2        
      44       22       24 am       
      45       24       47 1        
      46       24       48 1        
      47       25       26 2        
      48       25       27 1        
      49       27       28 1        
      50       28       49 1        
      51       28       50 1        
      52       28       51 1        

