#        1GCZ_R01_S0001_C0000_L00003_S0001_C0004_G0010_E0001.mol2
#        Tue Jun  6 09:54:39 2017
#        Descriptor:      7    18    24     9     8    13
#        Energy - RMSD - RMSD MassCentre:     -69.7534    999.9999    999.9999
#        Receptor:       1  Surface Point:     1  Conformer:     0
#        Ligand:         3  Surface Point:     1  Conformer:     4
#        BUDE Formal Charge: 0
#        ATOM Count: 58
#        Heavy ATOM Count: 30
@<TRIPOS>MOLECULE
ZINC61580633_1GCZ_R01_S0001_C0000_L00003_S0001_C0004_G0010_E0001
 58 59 0 0 0
SMALL
USER_CHARGES
@<TRIPOS>ATOM
       1 C1        -0.1033    0.2960   -6.1792 C.3       1 <0>        -0.1532 
       2 C2         0.5721    0.1550   -4.8182 C.3       1 <0>        -0.1224 
       3 C3        -0.4208    0.5251   -3.7171 C.3       1 <0>        -0.1198 
       4 C4         0.2555    0.3840   -2.3542 C.3       1 <0>         0.0610 
       5 O1        -0.6736    0.7303   -1.3239 O.3       1 <0>        -0.3878 
       6 C5        -0.0945    0.6166   -0.0214 C.3       1 <0>         0.0487 
       7 C6        -1.1332    0.9986    1.0321 C.3       1 <0>         0.1244 
       8 N1        -0.5379    0.8817    2.3709 N.am      1 <0>        -0.7216 
       9 C7        -0.2896   -0.3195    2.8852 C.2       1 <0>         0.5161 
      10 O2        -0.5577   -1.3325    2.2413 O.2       1 <0>        -0.5151 
      11 C8         0.3219   -0.4397    4.2607 C.3       1 <0>         0.0490 
      12 O3        -0.6334   -0.0320    5.2434 O.3       1 <0>        -0.3194 
      13 C9        -0.2635   -0.0720    6.5411 C.2       1 <0>         0.5417 
      14 O4         0.8566   -0.4477    6.8456 O.2       1 <0>        -0.5337 
      15 C10       -1.2171    0.3401    7.5950 C.2       1 <0>        -0.2559 
      16 C11       -2.5917    0.8237    7.3364 C.2       1 <0>        -0.0791 
      17 C12       -3.2383    1.1435    8.4597 C.2       1 <0>        -0.2585 
      18 S1        -2.2566    0.8853    9.9095 S.3       1 <0>         0.3028 
      19 C13       -0.9149    0.3247    8.9004 C.2       1 <0>         0.0893 
      20 N2         0.3111   -0.0776    9.3607 N.am      1 <0>        -0.6099 
      21 C14        0.5656   -0.0760   10.6661 C.2       1 <0>         0.5551 
      22 O5        -0.3004    0.2867   11.4607 O.2       1 <0>        -0.4939 
      23 C15        1.8906   -0.5108   11.1617 C.ar      1 <0>        -0.1466 
      24 C16        2.1165   -0.4905   12.5433 C.ar      1 <0>        -0.0772 
      25 C17        3.3722   -0.8197   13.0671 C.ar      1 <0>        -0.1241 
      26 C18        4.4294   -1.1660   12.2175 C.ar      1 <0>        -0.0446 
      27 C19        4.1919   -1.2388   10.8398 C.ar      1 <0>        -0.1261 
      28 C20        2.9266   -0.9370   10.3222 C.ar      1 <0>        -0.0460 
      29 C21        5.7927   -1.4574   12.7979 C.3       1 <0>        -0.0928 
      30 C22        6.6051   -0.1671   12.8585 C.3       1 <0>        -0.1485 
      31 H1        -0.4190    1.3274   -6.3217 H         1 <0>         0.0567 
      32 H2        -0.9711   -0.3586   -6.2223 H         1 <0>         0.0554 
      33 H3         0.5995    0.0197   -6.9624 H         1 <0>         0.0557 
      34 H4         0.8993   -0.8733   -4.6797 H         1 <0>         0.0632 
      35 H5         1.4319    0.8198   -4.7686 H         1 <0>         0.0635 
      36 H6        -0.7483    1.5536   -3.8540 H         1 <0>         0.0711 
      37 H7        -1.2808   -0.1395   -3.7651 H         1 <0>         0.0704 
      38 H8         0.5828   -0.6443   -2.2158 H         1 <0>         0.0498 
      39 H9         1.1154    1.0488   -2.3048 H         1 <0>         0.0505 
      40 H10        0.7614    1.2839    0.0555 H         1 <0>         0.0584 
      41 H11        0.2287   -0.4091    0.1443 H         1 <0>         0.0702 
      42 H12       -1.9892    0.3314    0.9569 H         1 <0>         0.0872 
      43 H13       -1.4565    2.0244    0.8680 H         1 <0>         0.0805 
      44 H14       -0.3173    1.7128    2.9007 H         1 <0>         0.4058 
      45 H15        0.6088   -1.4734    4.4417 H         1 <0>         0.1008 
      46 H16        1.2012    0.1979    4.3242 H         1 <0>         0.0999 
      47 H17       -3.0087    0.8907    6.3424 H         1 <0>         0.1557 
      48 H18       -4.2554    1.5063    8.4665 H         1 <0>         0.1929 
      49 H19        1.0222   -0.3754    8.7083 H         1 <0>         0.4317 
      50 H20        1.3164   -0.2137   13.2138 H         1 <0>         0.1287 
      51 H21        3.5329   -0.8065   14.1350 H         1 <0>         0.1326 
      52 H22        4.9967   -1.5347   10.1831 H         1 <0>         0.1342 
      53 H23        2.7867   -1.0678    9.2593 H         1 <0>         0.1410 
      54 H24        6.3067   -2.1812   12.1689 H         1 <0>         0.0777 
      55 H25        5.6799   -1.8633   13.8010 H         1 <0>         0.0771 
      56 H26        6.0963    0.5513   13.4978 H         1 <0>         0.0623 
      57 H27        6.7051    0.2452   11.8566 H         1 <0>         0.0572 
      58 H28        7.5920   -0.3795   13.2642 H         1 <0>         0.0578 
@<TRIPOS>BOND
       1        1        2 1        
       2        1       31 1        
       3        1       32 1        
       4        1       33 1        
       5        2        3 1        
       6        2       34 1        
       7        2       35 1        
       8        3        4 1        
       9        3       36 1        
      10        3       37 1        
      11        4        5 1        
      12        4       38 1        
      13        4       39 1        
      14        5        6 1        
      15        6        7 1        
      16        6       40 1        
      17        6       41 1        
      18        7        8 1        
      19        7       42 1        
      20        7       43 1        
      21        8        9 am       
      22        8       44 1        
      23        9       10 2        
      24        9       11 1        
      25       11       12 1        
      26       11       45 1        
      27       11       46 1        
      28       12       13 1        
      29       13       14 2        
      30       13       15 1        
      31       15       19 2        
      32       15       16 1        
      33       16       17 2        
      34       16       47 1        
      35       17       18 1        
      36       17       48 1        
      37       18       19 1        
      38       19       20 1        
      39       20       21 am       
      40       20       49 1        
      41       21       22 2        
      42       21       23 1        
      43       23       28 ar       
      44       23       24 ar       
      45       24       25 ar       
      46       24       50 1        
      47       25       26 ar       
      48       25       51 1        
      49       26       27 ar       
      50       26       29 1        
      51       27       28 ar       
      52       27       52 1        
      53       28       53 1        
      54       29       30 1        
      55       29       54 1        
      56       29       55 1        
      57       30       56 1        
      58       30       57 1        
      59       30       58 1        

