#        1GCZ_R01_S0001_C0000_L00007_S0001_C0027_G0010_E0001.mol2
#        Tue Jun  6 09:56:45 2017
#        Descriptor:     16    18     9     8     8    13
#        Energy - RMSD - RMSD MassCentre:     -56.6200    999.9999    999.9999
#        Receptor:       1  Surface Point:     1  Conformer:     0
#        Ligand:         7  Surface Point:     1  Conformer:    27
#        BUDE Formal Charge: 0
#        ATOM Count: 51
#        Heavy ATOM Count: 28
@<TRIPOS>MOLECULE
ZINC61408927_1GCZ_R01_S0001_C0000_L00007_S0001_C0027_G0010_E0001
 51 52 0 0 0
SMALL
USER_CHARGES
@<TRIPOS>ATOM
       1 C1         2.2705    0.4597    7.4053 C.3       1 <0>        -0.1139 
       2 C2         1.2590    0.2837    8.5123 C.ar      1 <0>        -0.1278 
       3 C3         1.6849    0.3487    9.8443 C.ar      1 <0>        -0.0331 
       4 C4         0.7976    0.1162   10.9020 C.ar      1 <0>        -0.1443 
       5 C5        -0.5392   -0.1679   10.6174 C.ar      1 <0>        -0.0449 
       6 C6        -0.9831   -0.1920    9.2900 C.ar      1 <0>        -0.1321 
       7 C7        -0.0934    0.0497    8.2365 C.ar      1 <0>         0.2027 
       8 N1        -0.5779    0.0497    6.9070 N.am      1 <0>        -0.6834 
       9 C8        -1.8876    0.0497    6.6755 C.2       1 <0>         0.7034 
      10 O1        -2.6910    0.0497    7.6332 O.2       1 <0>        -0.5648 
      11 N2        -2.3415    0.0497    5.4253 N.am      1 <0>        -0.7401 
      12 C9        -1.3954    0.0497    4.3004 C.3       1 <0>         0.1407 
      13 C10       -2.1709    0.0497    2.9839 C.3       1 <0>        -0.0859 
      14 C11       -1.1989    0.0497    1.8283 C.ar      1 <0>        -0.1215 
      15 C12       -0.7520    1.2590    1.2826 C.ar      1 <0>        -0.0699 
      16 C13        0.1548    1.2637    0.2159 C.ar      1 <0>        -0.1435 
      17 C14        0.6212    0.0586   -0.3101 C.ar      1 <0>         0.1289 
      18 C15        0.1678   -1.1554    0.2195 C.ar      1 <0>        -0.2084 
      19 C16       -0.7414   -1.1563    1.2842 C.ar      1 <0>        -0.0704 
      20 O2         1.5264    0.0654   -1.3384 O.3       1 <0>        -0.2897 
      21 C17        1.3628   -0.8982   -2.3823 C.3       1 <0>         0.0392 
      22 C18        0.0260   -0.6903   -3.0530 C.2       1 <0>         0.5189 
      23 O3        -0.8976   -1.4740   -2.8387 O.2       1 <0>        -0.5164 
      24 N3        -0.1520    0.3400   -3.8750 N.am      1 <0>        -0.8500 
      25 C19        1.2632    0.1640   12.3061 C.2       1 <0>         0.5100 
      26 O4         2.4088    0.4034   12.5475 O.2       1 <0>        -0.5069 
      27 O5         0.3933   -0.0628   13.3132 O.3       1 <0>        -0.3499 
      28 C20        0.8891   -0.0060   14.6534 C.3       1 <0>         0.0344 
      29 H1         1.8224    1.0273    6.5924 H         1 <0>         0.0741 
      30 H2         2.5798   -0.5170    7.0388 H         1 <0>         0.0756 
      31 H3         3.1367    0.9952    7.7880 H         1 <0>         0.0654 
      32 H4         2.7147    0.5849   10.0680 H         1 <0>         0.1419 
      33 H5        -1.2351   -0.3705   11.4179 H         1 <0>         0.1420 
      34 H6        -2.0208   -0.3949    9.0699 H         1 <0>         0.1513 
      35 H7         0.0712    0.0497    6.1333 H         1 <0>         0.4099 
      36 H8        -3.3361    0.0497    5.2496 H         1 <0>         0.3991 
      37 H9        -0.7697   -0.8389    4.3535 H         1 <0>         0.0724 
      38 H10       -0.7698    0.9382    4.3536 H         1 <0>         0.0717 
      39 H11       -2.7966    0.9382    2.9323 H         1 <0>         0.0798 
      40 H12       -2.7966   -0.8389    2.9323 H         1 <0>         0.0807 
      41 H13       -1.1045    2.1999    1.6785 H         1 <0>         0.1319 
      42 H14        0.4978    2.1977   -0.2040 H         1 <0>         0.1348 
      43 H15        0.5208   -2.0855   -0.2009 H         1 <0>         0.1287 
      44 H16       -1.0871   -2.1000    1.6797 H         1 <0>         0.1269 
      45 H17        1.4056   -1.9000   -1.9602 H         1 <0>         0.0958 
      46 H18        2.1589   -0.7779   -3.1140 H         1 <0>         0.0955 
      47 H19       -1.0460    0.4790   -4.3236 H         1 <0>         0.4037 
      48 H20        0.6071    0.9827   -4.0502 H         1 <0>         0.4105 
      49 H21        1.2831    0.9886   14.8518 H         1 <0>         0.0617 
      50 H22        0.0801   -0.2216   15.3482 H         1 <0>         0.0616 
      51 H23        1.6807   -0.7418   14.7780 H         1 <0>         0.1040 
@<TRIPOS>BOND
       1        1        2 1        
       2        1       29 1        
       3        1       30 1        
       4        1       31 1        
       5        2        7 ar       
       6        2        3 ar       
       7        3        4 ar       
       8        3       32 1        
       9        4        5 ar       
      10        4       25 1        
      11        5        6 ar       
      12        5       33 1        
      13        6        7 ar       
      14        6       34 1        
      15        7        8 1        
      16        8        9 am       
      17        8       35 1        
      18        9       10 2        
      19        9       11 am       
      20       11       12 1        
      21       11       36 1        
      22       12       13 1        
      23       12       37 1        
      24       12       38 1        
      25       13       14 1        
      26       13       39 1        
      27       13       40 1        
      28       14       19 ar       
      29       14       15 ar       
      30       15       16 ar       
      31       15       41 1        
      32       16       17 ar       
      33       16       42 1        
      34       17       18 ar       
      35       17       20 1        
      36       18       19 ar       
      37       18       43 1        
      38       19       44 1        
      39       20       21 1        
      40       21       22 1        
      41       21       45 1        
      42       21       46 1        
      43       22       23 2        
      44       22       24 am       
      45       24       47 1        
      46       24       48 1        
      47       25       26 2        
      48       25       27 1        
      49       27       28 1        
      50       28       49 1        
      51       28       50 1        
      52       28       51 1        

