#        1GCZ_R01_S0001_C0000_L00007_S0001_C0027_G0010_E0001.mol2
#        Tue Jun  6 14:08:40 2017
#        Descriptor:     11    24    32    15     8    13
#        Energy - RMSD - RMSD MassCentre:     -56.6073    999.9999    999.9999
#        Receptor:       1  Surface Point:     1  Conformer:     0
#        Ligand:         7  Surface Point:     1  Conformer:    27
#        BUDE Formal Charge: 0
#        ATOM Count: 51
#        Heavy ATOM Count: 28
@<TRIPOS>MOLECULE
ZINC61408927_1GCZ_R01_S0001_C0000_L00007_S0001_C0027_G0010_E0001
 51 52 0 0 0
SMALL
USER_CHARGES
@<TRIPOS>ATOM
       1 C1         5.1818   -2.7848    5.3015 C.3       1 <0>        -0.1139 
       2 C2         4.0011   -2.0523    5.8923 C.ar      1 <0>        -0.1278 
       3 C3         2.8425   -2.7695    6.2136 C.ar      1 <0>        -0.0331 
       4 C4         1.6973   -2.1218    6.6920 C.ar      1 <0>        -0.1443 
       5 C5         1.7230   -0.7370    6.8665 C.ar      1 <0>        -0.0449 
       6 C6         2.8912   -0.0174    6.5891 C.ar      1 <0>        -0.1321 
       7 C7         4.0363   -0.6714    6.1190 C.ar      1 <0>         0.2027 
       8 N1         5.2119    0.0784    5.8773 N.am      1 <0>        -0.6834 
       9 C8         5.3001    1.3347    6.3045 C.2       1 <0>         0.7034 
      10 O1         4.3439    1.8536    6.9200 O.2       1 <0>        -0.5648 
      11 N2         6.4057    2.0381    6.0766 N.am      1 <0>        -0.7401 
      12 C9         7.5293    1.4264    5.3527 C.3       1 <0>         0.1407 
      13 C10        8.6652    2.4404    5.2266 C.3       1 <0>        -0.0859 
      14 C11        9.8194    1.8120    4.4829 C.ar      1 <0>        -0.1215 
      15 C12       10.8265    1.1376    5.1836 C.ar      1 <0>        -0.0699 
      16 C13       11.8946    0.5472    4.4975 C.ar      1 <0>        -0.1435 
      17 C14       11.9606    0.6264    3.1062 C.ar      1 <0>         0.1289 
      18 C15       10.9659    1.3119    2.3987 C.ar      1 <0>        -0.2084 
      19 C16        9.9009    1.9038    3.0883 C.ar      1 <0>        -0.0704 
      20 O2        12.9941    0.0280    2.4349 O.3       1 <0>        -0.2897 
      21 C17       13.5686    0.7271    1.3275 C.3       1 <0>         0.0392 
      22 C18       14.1375    2.0422    1.8040 C.2       1 <0>         0.5189 
      23 O3        13.5526    3.0936    1.5480 O.2       1 <0>        -0.5164 
      24 N3        15.2705    2.0628    2.5003 N.am      1 <0>        -0.8500 
      25 C19        0.4698   -2.8865    7.0063 C.2       1 <0>         0.5100 
      26 O4         0.4485   -4.0713    6.8525 O.2       1 <0>        -0.5069 
      27 O5        -0.6252   -2.2450    7.4668 O.3       1 <0>        -0.3499 
      28 C20       -1.7877   -3.0256    7.7568 C.3       1 <0>         0.0344 
      29 H1         6.1035   -2.3694    5.7034 H         1 <0>         0.0741 
      30 H2         5.1738   -2.6711    4.2194 H         1 <0>         0.0756 
      31 H3         5.1175   -3.8405    5.5565 H         1 <0>         0.0654 
      32 H4         2.8254   -3.8429    6.0956 H         1 <0>         0.1419 
      33 H5         0.8437   -0.2157    7.2149 H         1 <0>         0.1420 
      34 H6         2.9171    1.0517    6.7400 H         1 <0>         0.1513 
      35 H7         5.9845   -0.3409    5.3800 H         1 <0>         0.4099 
      36 H8         6.4727    2.9922    6.4011 H         1 <0>         0.3991 
      37 H9         7.1996    1.1249    4.3605 H         1 <0>         0.0724 
      38 H10        7.8801    0.5538    5.8996 H         1 <0>         0.0717 
      39 H11        8.9935    2.7416    6.2191 H         1 <0>         0.0798 
      40 H12        8.3128    3.3128    4.6801 H         1 <0>         0.0807 
      41 H13       10.7896    1.0685    6.2607 H         1 <0>         0.1319 
      42 H14       12.6707    0.0280    5.0400 H         1 <0>         0.1348 
      43 H15       11.0295    1.3828    1.3229 H         1 <0>         0.1287 
      44 H16        9.1432    2.4341    2.5306 H         1 <0>         0.1269 
      45 H17       12.8011    0.9130    0.5792 H         1 <0>         0.0958 
      46 H18       14.3627    0.1244    0.8916 H         1 <0>         0.0955 
      47 H19       15.6510    2.9423    2.8189 H         1 <0>         0.4037 
      48 H20       15.7498    1.1989    2.7098 H         1 <0>         0.4105 
      49 H21       -1.5516   -3.7528    8.5310 H         1 <0>         0.0617 
      50 H22       -2.5856   -2.3722    8.1032 H         1 <0>         0.0616 
      51 H23       -2.1088   -3.5451    6.8564 H         1 <0>         0.1040 
@<TRIPOS>BOND
       1        1        2 1        
       2        1       29 1        
       3        1       30 1        
       4        1       31 1        
       5        2        7 ar       
       6        2        3 ar       
       7        3        4 ar       
       8        3       32 1        
       9        4        5 ar       
      10        4       25 1        
      11        5        6 ar       
      12        5       33 1        
      13        6        7 ar       
      14        6       34 1        
      15        7        8 1        
      16        8        9 am       
      17        8       35 1        
      18        9       10 2        
      19        9       11 am       
      20       11       12 1        
      21       11       36 1        
      22       12       13 1        
      23       12       37 1        
      24       12       38 1        
      25       13       14 1        
      26       13       39 1        
      27       13       40 1        
      28       14       19 ar       
      29       14       15 ar       
      30       15       16 ar       
      31       15       41 1        
      32       16       17 ar       
      33       16       42 1        
      34       17       18 ar       
      35       17       20 1        
      36       18       19 ar       
      37       18       43 1        
      38       19       44 1        
      39       20       21 1        
      40       21       22 1        
      41       21       45 1        
      42       21       46 1        
      43       22       23 2        
      44       22       24 am       
      45       24       47 1        
      46       24       48 1        
      47       25       26 2        
      48       25       27 1        
      49       27       28 1        
      50       28       49 1        
      51       28       50 1        
      52       28       51 1        

