#        1GCZ_R01_S0001_C0000_L00007_S0001_C0029_G0010_E0001.mol2
#        Tue Jun  6 14:08:44 2017
#        Descriptor:     10    25    29    15     7    13
#        Energy - RMSD - RMSD MassCentre:     -56.7471    999.9999    999.9999
#        Receptor:       1  Surface Point:     1  Conformer:     0
#        Ligand:         7  Surface Point:     1  Conformer:    29
#        BUDE Formal Charge: 0
#        ATOM Count: 51
#        Heavy ATOM Count: 28
@<TRIPOS>MOLECULE
ZINC61408927_1GCZ_R01_S0001_C0000_L00007_S0001_C0029_G0010_E0001
 51 52 0 0 0
SMALL
USER_CHARGES
@<TRIPOS>ATOM
       1 C1         5.0037   -4.5352    5.8325 C.3       1 <0>        -0.1139 
       2 C2         4.0981   -3.3713    6.1561 C.ar      1 <0>        -0.1278 
       3 C3         2.7261   -3.5971    6.3188 C.ar      1 <0>        -0.0331 
       4 C4         1.8381   -2.5385    6.5440 C.ar      1 <0>        -0.1443 
       5 C5         2.3383   -1.2377    6.6243 C.ar      1 <0>        -0.0449 
       6 C6         3.7140   -1.0074    6.5061 C.ar      1 <0>        -0.1321 
       7 C7         4.5985   -2.0707    6.2896 C.ar      1 <0>         0.2027 
       8 N1         5.9869   -1.8105    6.2057 N.am      1 <0>        -0.6834 
       9 C8         6.4633   -0.6187    6.5541 C.2       1 <0>         0.7034 
      10 O1         5.6839    0.2723    6.9558 O.2       1 <0>        -0.5648 
      11 N2         7.7685   -0.3755    6.4747 N.am      1 <0>        -0.7401 
      12 C9         8.2950    0.9418    6.8598 C.3       1 <0>         0.1407 
      13 C10        9.8117    0.9566    6.6760 C.3       1 <0>        -0.0859 
      14 C11       10.1430    0.7571    5.2163 C.ar      1 <0>        -0.1215 
      15 C12       10.3390   -0.5322    4.7075 C.ar      1 <0>        -0.0699 
      16 C13       10.6392   -0.7223    3.3532 C.ar      1 <0>        -0.1435 
      17 C14       10.7430    0.3764    2.4996 C.ar      1 <0>         0.1289 
      18 C15       10.5634    1.6703    3.0032 C.ar      1 <0>        -0.2084 
      19 C16       10.2667    1.8567    4.3587 C.ar      1 <0>        -0.0704 
      20 O2        11.0136    0.1870    1.1701 O.3       1 <0>        -0.2897 
      21 C17       11.9174    1.0944    0.5336 C.3       1 <0>         0.0392 
      22 C18       13.2656    1.0173    1.2093 C.2       1 <0>         0.5189 
      23 O3        13.6330    1.9253    1.9532 O.2       1 <0>        -0.5164 
      24 N3        14.0549   -0.0324    0.9996 N.am      1 <0>        -0.8500 
      25 C19        0.3863   -2.7855    6.6911 C.2       1 <0>         0.5100 
      26 O4        -0.3585   -1.8709    6.8829 O.2       1 <0>        -0.5069 
      27 O5        -0.0957   -4.0437    6.6086 O.3       1 <0>        -0.3499 
      28 C20       -1.5054   -4.2332    6.7571 C.3       1 <0>         0.0344 
      29 H1         5.4963   -4.8742    6.7414 H         1 <0>         0.0741 
      30 H2         5.7530   -4.2207    5.1090 H         1 <0>         0.0756 
      31 H3         4.4135   -5.3479    5.4144 H         1 <0>         0.0654 
      32 H4         2.3386   -4.6042    6.2740 H         1 <0>         0.1419 
      33 H5         1.6678   -0.4050    6.7769 H         1 <0>         0.1420 
      34 H6         4.1035   -0.0032    6.5852 H         1 <0>         0.1513 
      35 H7         6.6165   -2.5303    5.8812 H         1 <0>         0.4099 
      36 H8         8.3973   -1.0961    6.1500 H         1 <0>         0.3991 
      37 H9         8.0533    1.1376    7.9024 H         1 <0>         0.0724 
      38 H10        7.8455    1.7087    6.2325 H         1 <0>         0.0717 
      39 H11       10.2552    0.1545    7.2621 H         1 <0>         0.0798 
      40 H12       10.2076    1.9132    7.0109 H         1 <0>         0.0807 
      41 H13       10.2626   -1.3925    5.3559 H         1 <0>         0.1319 
      42 H14       10.7907   -1.7177    2.9627 H         1 <0>         0.1348 
      43 H15       10.6594    2.5181    2.3413 H         1 <0>         0.1287 
      44 H16       10.1359    2.8606    4.7352 H         1 <0>         0.1269 
      45 H17       11.5288    2.1074    0.6126 H         1 <0>         0.0958 
      46 H18       12.0209    0.8258   -0.5156 H         1 <0>         0.0955 
      47 H19       14.9566   -0.0840    1.4514 H         1 <0>         0.4037 
      48 H20       13.7521   -0.7774    0.3886 H         1 <0>         0.4105 
      49 H21       -2.0283   -3.6886    5.9737 H         1 <0>         0.0617 
      50 H22       -1.7383   -5.2931    6.6804 H         1 <0>         0.0616 
      51 H23       -1.8201   -3.8616    7.7300 H         1 <0>         0.1040 
@<TRIPOS>BOND
       1        1        2 1        
       2        1       29 1        
       3        1       30 1        
       4        1       31 1        
       5        2        7 ar       
       6        2        3 ar       
       7        3        4 ar       
       8        3       32 1        
       9        4        5 ar       
      10        4       25 1        
      11        5        6 ar       
      12        5       33 1        
      13        6        7 ar       
      14        6       34 1        
      15        7        8 1        
      16        8        9 am       
      17        8       35 1        
      18        9       10 2        
      19        9       11 am       
      20       11       12 1        
      21       11       36 1        
      22       12       13 1        
      23       12       37 1        
      24       12       38 1        
      25       13       14 1        
      26       13       39 1        
      27       13       40 1        
      28       14       19 ar       
      29       14       15 ar       
      30       15       16 ar       
      31       15       41 1        
      32       16       17 ar       
      33       16       42 1        
      34       17       18 ar       
      35       17       20 1        
      36       18       19 ar       
      37       18       43 1        
      38       19       44 1        
      39       20       21 1        
      40       21       22 1        
      41       21       45 1        
      42       21       46 1        
      43       22       23 2        
      44       22       24 am       
      45       24       47 1        
      46       24       48 1        
      47       25       26 2        
      48       25       27 1        
      49       27       28 1        
      50       28       49 1        
      51       28       50 1        
      52       28       51 1        

