#        1GCZ_R01_S0001_C0000_L00003_S0001_C0004_G0010_E0001.mol2
#        Tue Jun  6 14:03:33 2017
#        Descriptor:      7    19    27     9    10    13
#        Energy - RMSD - RMSD MassCentre:     -68.7102    999.9999    999.9999
#        Receptor:       1  Surface Point:     1  Conformer:     0
#        Ligand:         3  Surface Point:     1  Conformer:     4
#        BUDE Formal Charge: 0
#        ATOM Count: 58
#        Heavy ATOM Count: 30
@<TRIPOS>MOLECULE
ZINC61580633_1GCZ_R01_S0001_C0000_L00003_S0001_C0004_G0010_E0001
 58 59 0 0 0
SMALL
USER_CHARGES
@<TRIPOS>ATOM
       1 C1        -0.1035   -0.2321   -5.9581 C.3       1 <0>        -0.1532 
       2 C2         0.5519    0.2166   -4.6552 C.3       1 <0>        -0.1224 
       3 C3        -0.4930    0.2346   -3.5403 C.3       1 <0>        -0.1198 
       4 C4         0.1632    0.6839   -2.2356 C.3       1 <0>         0.0610 
       5 O1        -0.8145    0.7007   -1.1923 O.3       1 <0>        -0.3878 
       6 C5        -0.2562    1.1150    0.0572 C.3       1 <0>         0.0487 
       7 C6        -1.3467    1.1122    1.1274 C.3       1 <0>         0.1244 
       8 N1        -0.7727    1.5382    2.4118 N.am      1 <0>        -0.7216 
       9 C7         0.0430    0.7253    3.0774 C.2       1 <0>         0.5161 
      10 O2         0.3173   -0.3825    2.6189 O.2       1 <0>        -0.5151 
      11 C8         0.6326    1.1628    4.3969 C.3       1 <0>         0.0490 
      12 O3        -0.3986    1.2107    5.3864 O.3       1 <0>        -0.3194 
      13 C9        -0.0582    1.5841    6.6382 C.2       1 <0>         0.5417 
      14 O4         1.0997    1.8681    6.8973 O.2       1 <0>        -0.5337 
      15 C10       -1.0901    1.6490    7.6970 C.2       1 <0>        -0.2559 
      16 C11       -2.5224    1.3397    7.4888 C.2       1 <0>        -0.0791 
      17 C12       -3.2422    1.4890    8.6032 C.2       1 <0>        -0.2585 
      18 S1        -2.2629    2.0040    9.9845 S.3       1 <0>         0.3028 
      19 C13       -0.8207    2.0113    8.9586 C.2       1 <0>         0.0893 
      20 N2         0.4422    2.3519    9.3659 N.am      1 <0>        -0.6099 
      21 C14        0.6618    2.7052   10.6292 C.2       1 <0>         0.5551 
      22 O5        -0.2696    2.7261   11.4324 O.2       1 <0>        -0.4939 
      23 C15        2.0267    3.0728   11.0676 C.ar      1 <0>        -0.1466 
      24 C16        2.2121    3.4414   12.4055 C.ar      1 <0>        -0.0772 
      25 C17        3.4643    3.8698   12.8619 C.ar      1 <0>        -0.1241 
      26 C18        4.5529    3.9475   11.9855 C.ar      1 <0>        -0.0446 
      27 C19        4.3836    3.5292   10.6602 C.ar      1 <0>        -0.1261 
      28 C20        3.1370    3.0737   10.2149 C.ar      1 <0>        -0.0460 
      29 C21        5.8793    4.4711   12.4825 C.3       1 <0>        -0.0928 
      30 C22        5.9377    5.9820   12.2776 C.3       1 <0>        -0.1485 
      31 H1        -0.8926    0.4674   -6.2261 H         1 <0>         0.0567 
      32 H2        -0.5278   -1.2251   -5.8268 H         1 <0>         0.0554 
      33 H3         0.6433   -0.2577   -6.7489 H         1 <0>         0.0557 
      34 H4         1.3494   -0.4752   -4.3926 H         1 <0>         0.0632 
      35 H5         0.9642    1.2155   -4.7809 H         1 <0>         0.0635 
      36 H6        -1.2908    0.9267   -3.8013 H         1 <0>         0.0711 
      37 H7        -0.9055   -0.7641   -3.4129 H         1 <0>         0.0704 
      38 H8         0.9609   -0.0080   -1.9731 H         1 <0>         0.0498 
      39 H9         0.5755    1.6829   -2.3616 H         1 <0>         0.0505 
      40 H10        0.1514    2.1189   -0.0418 H         1 <0>         0.0584 
      41 H11        0.5366    0.4282    0.3465 H         1 <0>         0.0702 
      42 H12       -1.7544    0.1087    1.2280 H         1 <0>         0.0872 
      43 H13       -2.1396    1.7994    0.8396 H         1 <0>         0.0805 
      44 H14       -0.9972    2.4476    2.7894 H         1 <0>         0.4058 
      45 H15        1.3979    0.4538    4.7058 H         1 <0>         0.1008 
      46 H16        1.0753    2.1505    4.2872 H         1 <0>         0.0999 
      47 H17       -2.9169    1.0188    6.5361 H         1 <0>         0.1557 
      48 H18       -4.3045    1.2989    8.6436 H         1 <0>         0.1929 
      49 H19        1.2070    2.3347    8.7065 H         1 <0>         0.4317 
      50 H20        1.3809    3.3998   13.0937 H         1 <0>         0.1287 
      51 H21        3.5969    4.1456   13.8976 H         1 <0>         0.1326 
      52 H22        5.2286    3.5592    9.9882 H         1 <0>         0.1342 
      53 H23        3.0812    2.7087    9.2000 H         1 <0>         0.1410 
      54 H24        6.6863    3.9976   11.9272 H         1 <0>         0.0777 
      55 H25        5.9846    4.2435   13.5412 H         1 <0>         0.0771 
      56 H26        5.1379    6.4553   12.8433 H         1 <0>         0.0623 
      57 H27        5.8182    6.2090   11.2202 H         1 <0>         0.0572 
      58 H28        6.8986    6.3573   12.6234 H         1 <0>         0.0578 
@<TRIPOS>BOND
       1        1        2 1        
       2        1       31 1        
       3        1       32 1        
       4        1       33 1        
       5        2        3 1        
       6        2       34 1        
       7        2       35 1        
       8        3        4 1        
       9        3       36 1        
      10        3       37 1        
      11        4        5 1        
      12        4       38 1        
      13        4       39 1        
      14        5        6 1        
      15        6        7 1        
      16        6       40 1        
      17        6       41 1        
      18        7        8 1        
      19        7       42 1        
      20        7       43 1        
      21        8        9 am       
      22        8       44 1        
      23        9       10 2        
      24        9       11 1        
      25       11       12 1        
      26       11       45 1        
      27       11       46 1        
      28       12       13 1        
      29       13       14 2        
      30       13       15 1        
      31       15       19 2        
      32       15       16 1        
      33       16       17 2        
      34       16       47 1        
      35       17       18 1        
      36       17       48 1        
      37       18       19 1        
      38       19       20 1        
      39       20       21 am       
      40       20       49 1        
      41       21       22 2        
      42       21       23 1        
      43       23       28 ar       
      44       23       24 ar       
      45       24       25 ar       
      46       24       50 1        
      47       25       26 ar       
      48       25       51 1        
      49       26       27 ar       
      50       26       29 1        
      51       27       28 ar       
      52       27       52 1        
      53       28       53 1        
      54       29       30 1        
      55       29       54 1        
      56       29       55 1        
      57       30       56 1        
      58       30       57 1        
      59       30       58 1        

