#        1GCZ_R01_S0001_C0000_L00007_S0001_C0032_G0010_E0001.mol2
#        Tue Jun  6 09:56:50 2017
#        Descriptor:      9     1    27    15    10    13
#        Energy - RMSD - RMSD MassCentre:     -64.2444    999.9999    999.9999
#        Receptor:       1  Surface Point:     1  Conformer:     0
#        Ligand:         7  Surface Point:     1  Conformer:    32
#        BUDE Formal Charge: 0
#        ATOM Count: 51
#        Heavy ATOM Count: 28
@<TRIPOS>MOLECULE
ZINC61408927_1GCZ_R01_S0001_C0000_L00007_S0001_C0032_G0010_E0001
 51 52 0 0 0
SMALL
USER_CHARGES
@<TRIPOS>ATOM
       1 C1         4.0153    3.1101    9.8534 C.3       1 <0>        -0.1139 
       2 C2         3.3210    2.7060    8.5750 C.ar      1 <0>        -0.1278 
       3 C3         1.9237    2.7604    8.5092 C.ar      1 <0>        -0.0331 
       4 C4         1.2332    2.3238    7.3722 C.ar      1 <0>        -0.1443 
       5 C5         1.9579    1.8428    6.2803 C.ar      1 <0>        -0.0449 
       6 C6         3.3571    1.8255    6.3208 C.ar      1 <0>        -0.1321 
       7 C7         4.0427    2.2713    7.4570 C.ar      1 <0>         0.2027 
       8 N1         5.4578    2.2712    7.4564 N.am      1 <0>        -0.6834 
       9 C8         6.1232    2.0712    6.3224 C.2       1 <0>         0.7034 
      10 O1         5.4981    1.8832    5.2564 O.2       1 <0>        -0.5648 
      11 N2         7.4533    2.0714    6.3234 N.am      1 <0>        -0.7401 
      12 C9         8.1887    1.8504    5.0699 C.3       1 <0>         0.1407 
      13 C10        9.6906    1.8991    5.3464 C.3       1 <0>        -0.0859 
      14 C11       10.4461    1.6721    4.0588 C.ar      1 <0>        -0.1215 
      15 C12       10.8068    0.3759    3.6719 C.ar      1 <0>        -0.0699 
      16 C13       11.5010    0.1601    2.4753 C.ar      1 <0>        -0.1435 
      17 C14       11.8366    1.2397    1.6578 C.ar      1 <0>         0.1289 
      18 C15       11.4930    2.5406    2.0443 C.ar      1 <0>        -0.2084 
      19 C16       10.8018    2.7529    3.2432 C.ar      1 <0>        -0.0704 
      20 O2        12.4951    1.0244    0.4759 O.3       1 <0>        -0.2897 
      21 C17       13.5323    1.9383    0.1098 C.3       1 <0>         0.0392 
      22 C18       14.1232    1.5228   -1.2162 C.2       1 <0>         0.5189 
      23 O3        13.8593    2.1615   -2.2338 O.2       1 <0>        -0.5164 
      24 N3        14.9286    0.4665   -1.2831 N.am      1 <0>        -0.8500 
      25 C19       -0.2454    2.3635    7.3219 C.2       1 <0>         0.5100 
      26 O4        -0.8198    1.9872    6.3438 O.2       1 <0>        -0.5069 
      27 O5        -0.9443    2.8249    8.3806 O.3       1 <0>        -0.3499 
      28 C20       -2.3711    2.8442    8.2856 C.3       1 <0>         0.0344 
      29 H1         4.9324    3.6443    9.6140 H         1 <0>         0.0741 
      30 H2         4.2539    2.2205   10.4326 H         1 <0>         0.0756 
      31 H3         3.3594    3.7561   10.4331 H         1 <0>         0.0654 
      32 H4         1.3613    3.1478    9.3458 H         1 <0>         0.1419 
      33 H5         1.4437    1.4822    5.4018 H         1 <0>         0.1420 
      34 H6         3.9188    1.4694    5.4699 H         1 <0>         0.1513 
      35 H7         5.9628    2.4230    8.3177 H         1 <0>         0.4099 
      36 H8         7.9573    2.2234    7.1853 H         1 <0>         0.3991 
      37 H9         7.9256    2.6265    4.3542 H         1 <0>         0.0724 
      38 H10        7.9256    0.8764    4.6628 H         1 <0>         0.0717 
      39 H11        9.9522    1.1232    6.0627 H         1 <0>         0.0798 
      40 H12        9.9523    2.8733    5.7541 H         1 <0>         0.0807 
      41 H13       10.5547   -0.4697    4.2945 H         1 <0>         0.1319 
      42 H14       11.7789   -0.8405    2.1790 H         1 <0>         0.1348 
      43 H15       11.7681    3.3741    1.4150 H         1 <0>         0.1287 
      44 H16       10.5477    3.7621    3.5321 H         1 <0>         0.1269 
      45 H17       14.3084    1.9293    0.8722 H         1 <0>         0.0958 
      46 H18       13.1181    2.9409    0.0248 H         1 <0>         0.0955 
      47 H19       15.1445   -0.0572   -0.4468 H         1 <0>         0.4037 
      48 H20       15.3238    0.1885   -2.1700 H         1 <0>         0.4105 
      49 H21       -2.7378    1.8307    8.1372 H         1 <0>         0.0617 
      50 H22       -2.7896    3.2511    9.2037 H         1 <0>         0.0616 
      51 H23       -2.6695    3.4654    7.4439 H         1 <0>         0.1040 
@<TRIPOS>BOND
       1        1        2 1        
       2        1       29 1        
       3        1       30 1        
       4        1       31 1        
       5        2        7 ar       
       6        2        3 ar       
       7        3        4 ar       
       8        3       32 1        
       9        4        5 ar       
      10        4       25 1        
      11        5        6 ar       
      12        5       33 1        
      13        6        7 ar       
      14        6       34 1        
      15        7        8 1        
      16        8        9 am       
      17        8       35 1        
      18        9       10 2        
      19        9       11 am       
      20       11       12 1        
      21       11       36 1        
      22       12       13 1        
      23       12       37 1        
      24       12       38 1        
      25       13       14 1        
      26       13       39 1        
      27       13       40 1        
      28       14       19 ar       
      29       14       15 ar       
      30       15       16 ar       
      31       15       41 1        
      32       16       17 ar       
      33       16       42 1        
      34       17       18 ar       
      35       17       20 1        
      36       18       19 ar       
      37       18       43 1        
      38       19       44 1        
      39       20       21 1        
      40       21       22 1        
      41       21       45 1        
      42       21       46 1        
      43       22       23 2        
      44       22       24 am       
      45       24       47 1        
      46       24       48 1        
      47       25       26 2        
      48       25       27 1        
      49       27       28 1        
      50       28       49 1        
      51       28       50 1        
      52       28       51 1        

