#        1GCZ_R01_S0001_C0000_L00007_S0001_C0032_G0010_E0001.mol2
#        Tue Jun  6 14:08:50 2017
#        Descriptor:     12     1    28    15     9    13
#        Energy - RMSD - RMSD MassCentre:     -62.6969    999.9999    999.9999
#        Receptor:       1  Surface Point:     1  Conformer:     0
#        Ligand:         7  Surface Point:     1  Conformer:    32
#        BUDE Formal Charge: 0
#        ATOM Count: 51
#        Heavy ATOM Count: 28
@<TRIPOS>MOLECULE
ZINC61408927_1GCZ_R01_S0001_C0000_L00007_S0001_C0032_G0010_E0001
 51 52 0 0 0
SMALL
USER_CHARGES
@<TRIPOS>ATOM
       1 C1         1.8783    0.8436    7.7276 C.3       1 <0>        -0.1139 
       2 C2         2.0159    0.4277    6.2828 C.ar      1 <0>        -0.1278 
       3 C3         0.8629    0.1577    5.5362 C.ar      1 <0>        -0.0331 
       4 C4         0.9440   -0.3039    4.2170 C.ar      1 <0>        -0.1443 
       5 C5         2.2006   -0.4795    3.6348 C.ar      1 <0>        -0.0449 
       6 C6         3.3579   -0.1706    4.3594 C.ar      1 <0>        -0.1321 
       7 C7         3.2706    0.2989    5.6754 C.ar      1 <0>         0.2027 
       8 N1         4.4565    0.6326    6.3717 N.am      1 <0>        -0.6834 
       9 C8         5.6110    0.7190    5.7172 C.2       1 <0>         0.7034 
      10 O1         5.6486    0.5053    4.4862 O.2       1 <0>        -0.5648 
      11 N2         6.7248    1.0329    6.3730 N.am      1 <0>        -0.7401 
      12 C9         8.0009    1.1283    5.6496 C.3       1 <0>         0.1407 
      13 C10        9.1136    1.4998    6.6285 C.3       1 <0>        -0.0859 
      14 C11       10.4245    1.5979    5.8855 C.ar      1 <0>        -0.1215 
      15 C12       11.2478    0.4730    5.7562 C.ar      1 <0>        -0.0699 
      16 C13       12.4606    0.5577    5.0618 C.ar      1 <0>        -0.1435 
      17 C14       12.8560    1.7678    4.4910 C.ar      1 <0>         0.1289 
      18 C15       12.0460    2.9013    4.6284 C.ar      1 <0>        -0.2084 
      19 C16       10.8355    2.8137    5.3262 C.ar      1 <0>        -0.0704 
      20 O2        14.0318    1.8429    3.7919 O.3       1 <0>        -0.2897 
      21 C17       14.8406    3.0098    3.9632 C.3       1 <0>         0.0392 
      22 C18       16.0807    2.8912    3.1099 C.2       1 <0>         0.5189 
      23 O3        16.1840    3.5558    2.0799 O.2       1 <0>        -0.5164 
      24 N3        17.0607    2.0682    3.4725 N.am      1 <0>        -0.8500 
      25 C19       -0.2808   -0.6090    3.4442 C.2       1 <0>         0.5100 
      26 O4        -0.1944   -1.0022    2.3190 O.2       1 <0>        -0.5069 
      27 O5        -1.4947   -0.4427    4.0107 O.3       1 <0>        -0.3499 
      28 C20       -2.6494   -0.7504    3.2250 C.3       1 <0>         0.0344 
      29 H1         2.6237    1.6016    7.9587 H         1 <0>         0.0741 
      30 H2         2.0295   -0.0219    8.3695 H         1 <0>         0.0756 
      31 H3         0.8830    1.2501    7.8943 H         1 <0>         0.0654 
      32 H4        -0.1108    0.3087    5.9783 H         1 <0>         0.1419 
      33 H5         2.2855   -0.8542    2.6255 H         1 <0>         0.1420 
      34 H6         4.3297   -0.2900    3.9038 H         1 <0>         0.1513 
      35 H7         4.4261    0.8054    7.3662 H         1 <0>         0.4099 
      36 H8         6.6933    1.2054    7.3676 H         1 <0>         0.3991 
      37 H9         7.9241    1.8931    4.8795 H         1 <0>         0.0724 
      38 H10        8.2280    0.1696    5.1881 H         1 <0>         0.0717 
      39 H11        9.1888    0.7348    7.3984 H         1 <0>         0.0798 
      40 H12        8.8850    2.4583    7.0898 H         1 <0>         0.0807 
      41 H13       10.9557   -0.4704    6.1931 H         1 <0>         0.1319 
      42 H14       13.0946   -0.3111    4.9638 H         1 <0>         0.1348 
      43 H15       12.3637    3.8392    4.1972 H         1 <0>         0.1287 
      44 H16       10.2228    3.6972    5.4294 H         1 <0>         0.1269 
      45 H17       15.1264    3.1018    5.0088 H         1 <0>         0.0958 
      46 H18       14.2753    3.8895    3.6623 H         1 <0>         0.0955 
      47 H19       16.9747    1.5231    4.3184 H         1 <0>         0.4037 
      48 H20       17.8901    1.9889    2.9018 H         1 <0>         0.4105 
      49 H21       -2.6233   -1.7996    2.9385 H         1 <0>         0.0617 
      50 H22       -3.5467   -0.5553    3.8084 H         1 <0>         0.0616 
      51 H23       -2.6551   -0.1298    2.3314 H         1 <0>         0.1040 
@<TRIPOS>BOND
       1        1        2 1        
       2        1       29 1        
       3        1       30 1        
       4        1       31 1        
       5        2        7 ar       
       6        2        3 ar       
       7        3        4 ar       
       8        3       32 1        
       9        4        5 ar       
      10        4       25 1        
      11        5        6 ar       
      12        5       33 1        
      13        6        7 ar       
      14        6       34 1        
      15        7        8 1        
      16        8        9 am       
      17        8       35 1        
      18        9       10 2        
      19        9       11 am       
      20       11       12 1        
      21       11       36 1        
      22       12       13 1        
      23       12       37 1        
      24       12       38 1        
      25       13       14 1        
      26       13       39 1        
      27       13       40 1        
      28       14       19 ar       
      29       14       15 ar       
      30       15       16 ar       
      31       15       41 1        
      32       16       17 ar       
      33       16       42 1        
      34       17       18 ar       
      35       17       20 1        
      36       18       19 ar       
      37       18       43 1        
      38       19       44 1        
      39       20       21 1        
      40       21       22 1        
      41       21       45 1        
      42       21       46 1        
      43       22       23 2        
      44       22       24 am       
      45       24       47 1        
      46       24       48 1        
      47       25       26 2        
      48       25       27 1        
      49       27       28 1        
      50       28       49 1        
      51       28       50 1        
      52       28       51 1        

