#        1GCZ_R01_S0001_C0000_L00007_S0001_C0033_G0010_E0001.mol2
#        Tue Jun  6 09:56:50 2017
#        Descriptor:      7    19     9    15    10    14
#        Energy - RMSD - RMSD MassCentre:     -57.5035    999.9999    999.9999
#        Receptor:       1  Surface Point:     1  Conformer:     0
#        Ligand:         7  Surface Point:     1  Conformer:    33
#        BUDE Formal Charge: 0
#        ATOM Count: 51
#        Heavy ATOM Count: 28
@<TRIPOS>MOLECULE
ZINC61408927_1GCZ_R01_S0001_C0000_L00007_S0001_C0033_G0010_E0001
 51 52 0 0 0
SMALL
USER_CHARGES
@<TRIPOS>ATOM
       1 C1         9.4617    2.7805    4.0006 C.3       1 <0>        -0.1139 
       2 C2        10.5687    2.4316    4.9662 C.ar      1 <0>        -0.1278 
       3 C3        11.9006    2.5695    4.5581 C.ar      1 <0>        -0.0331 
       4 C4        12.9584    2.1865    5.3915 C.ar      1 <0>        -0.1443 
       5 C5        12.6737    1.6746    6.6586 C.ar      1 <0>        -0.0449 
       6 C6        11.3463    1.5738    7.0916 C.ar      1 <0>        -0.1321 
       7 C7        10.2929    1.9663    6.2574 C.ar      1 <0>         0.2027 
       8 N1         8.9633    1.8822    6.7346 N.am      1 <0>        -0.6834 
       9 C8         8.7319    1.6547    8.0243 C.2       1 <0>         0.7034 
      10 O1         9.6895    1.5152    8.8155 O.2       1 <0>        -0.5648 
      11 N2         7.4817    1.5759    8.4714 N.am      1 <0>        -0.7401 
      12 C9         6.3567    1.7402    7.5397 C.3       1 <0>         0.1407 
      13 C10        5.0402    1.6055    8.3033 C.3       1 <0>        -0.0859 
      14 C11        3.8846    1.7743    7.3461 C.ar      1 <0>        -0.1215 
      15 C12        3.3390    3.0429    7.1160 C.ar      1 <0>        -0.0699 
      16 C13        2.2722    3.2049    6.2238 C.ar      1 <0>        -0.1435 
      17 C14        1.7462    2.0991    5.5552 C.ar      1 <0>         0.1289 
      18 C15        2.2759    0.8249    5.7909 C.ar      1 <0>        -0.2084 
      19 C16        3.3405    0.6661    6.6861 C.ar      1 <0>        -0.0704 
      20 O2         0.7179    2.2630    4.6649 O.3       1 <0>        -0.2897 
      21 C17       -0.3260    1.2857    4.6587 C.3       1 <0>         0.0392 
      22 C18       -0.9967    1.2583    6.0113 C.2       1 <0>         0.5189 
      23 O3        -0.7824    0.3261    6.7848 O.2       1 <0>        -0.5164 
      24 N3        -1.8187    2.2420    6.3655 N.am      1 <0>        -0.8500 
      25 C19       14.3624    2.3144    4.9412 C.2       1 <0>         0.5100 
      26 O4        15.2539    1.9830    5.6647 O.2       1 <0>        -0.5069 
      27 O5        14.6352    2.8055    3.7138 O.3       1 <0>        -0.3499 
      28 C20       16.0068    2.9105    3.3228 C.3       1 <0>         0.0344 
      29 H1         8.6488    3.2617    4.5404 H         1 <0>         0.0741 
      30 H2         9.0952    1.8724    3.5264 H         1 <0>         0.0756 
      31 H3         9.8444    3.4583    3.2405 H         1 <0>         0.0654 
      32 H4        12.1243    2.9810    3.5849 H         1 <0>         0.1419 
      33 H5        13.4742    1.3542    7.3088 H         1 <0>         0.1420 
      34 H6        11.1262    1.1938    8.0783 H         1 <0>         0.1513 
      35 H7         8.1896    1.9949    6.0953 H         1 <0>         0.4099 
      36 H8         7.3059    1.4032    9.4509 H         1 <0>         0.3991 
      37 H9         6.4098    0.9737    6.7692 H         1 <0>         0.0724 
      38 H10        6.4100    2.7238    7.0778 H         1 <0>         0.0717 
      39 H11        4.9887    2.3719    9.0739 H         1 <0>         0.0798 
      40 H12        4.9887    0.6218    8.7653 H         1 <0>         0.0807 
      41 H13        3.7348    3.9082    7.6266 H         1 <0>         0.1319 
      42 H14        1.8523    4.1843    6.0481 H         1 <0>         0.1348 
      43 H15        1.8555   -0.0298    5.2817 H         1 <0>         0.1287 
      44 H16        3.7360   -0.3233    6.8627 H         1 <0>         0.1269 
      45 H17        0.0961    0.3065    4.4426 H         1 <0>         0.0958 
      46 H18       -1.0577    1.5424    3.8956 H         1 <0>         0.0955 
      47 H19       -1.9939    3.0068    5.7296 H         1 <0>         0.4037 
      48 H20       -2.2673    2.2236    7.2701 H         1 <0>         0.4105 
      49 H21       16.4615    1.9222    3.3286 H         1 <0>         0.0617 
      50 H22       16.0666    3.3321    2.3217 H         1 <0>         0.0616 
      51 H23       16.5338    3.5571    4.0212 H         1 <0>         0.1040 
@<TRIPOS>BOND
       1        1        2 1        
       2        1       29 1        
       3        1       30 1        
       4        1       31 1        
       5        2        7 ar       
       6        2        3 ar       
       7        3        4 ar       
       8        3       32 1        
       9        4        5 ar       
      10        4       25 1        
      11        5        6 ar       
      12        5       33 1        
      13        6        7 ar       
      14        6       34 1        
      15        7        8 1        
      16        8        9 am       
      17        8       35 1        
      18        9       10 2        
      19        9       11 am       
      20       11       12 1        
      21       11       36 1        
      22       12       13 1        
      23       12       37 1        
      24       12       38 1        
      25       13       14 1        
      26       13       39 1        
      27       13       40 1        
      28       14       19 ar       
      29       14       15 ar       
      30       15       16 ar       
      31       15       41 1        
      32       16       17 ar       
      33       16       42 1        
      34       17       18 ar       
      35       17       20 1        
      36       18       19 ar       
      37       18       43 1        
      38       19       44 1        
      39       20       21 1        
      40       21       22 1        
      41       21       45 1        
      42       21       46 1        
      43       22       23 2        
      44       22       24 am       
      45       24       47 1        
      46       24       48 1        
      47       25       26 2        
      48       25       27 1        
      49       27       28 1        
      50       28       49 1        
      51       28       50 1        
      52       28       51 1        

