#        1GCZ_R01_S0001_C0000_L00007_S0001_C0033_G0010_E0001.mol2
#        Tue Jun  6 14:08:52 2017
#        Descriptor:     28    36     8    15    10    14
#        Energy - RMSD - RMSD MassCentre:     -53.9272    999.9999    999.9999
#        Receptor:       1  Surface Point:     1  Conformer:     0
#        Ligand:         7  Surface Point:     1  Conformer:    33
#        BUDE Formal Charge: 0
#        ATOM Count: 51
#        Heavy ATOM Count: 28
@<TRIPOS>MOLECULE
ZINC61408927_1GCZ_R01_S0001_C0000_L00007_S0001_C0033_G0010_E0001
 51 52 0 0 0
SMALL
USER_CHARGES
@<TRIPOS>ATOM
       1 C1         3.7910    2.1378    5.4082 C.3       1 <0>        -0.1139 
       2 C2         3.3755    2.3898    6.8377 C.ar      1 <0>        -0.1278 
       3 C3         2.0186    2.5631    7.1349 C.ar      1 <0>        -0.0331 
       4 C4         1.5937    2.8741    8.4321 C.ar      1 <0>        -0.1443 
       5 C5         2.5440    2.9950    9.4475 C.ar      1 <0>        -0.0449 
       6 C6         3.8989    2.7806    9.1683 C.ar      1 <0>        -0.1321 
       7 C7         4.3173    2.4614    7.8710 C.ar      1 <0>         0.2027 
       8 N1         5.6898    2.2193    7.6259 N.am      1 <0>        -0.6834 
       9 C8         6.5321    2.0708    8.6443 C.2       1 <0>         0.7034 
      10 O1         6.1110    2.1451    9.8189 O.2       1 <0>        -0.5648 
      11 N2         7.8219    1.8434    8.4124 N.am      1 <0>        -0.7401 
      12 C9         8.3155    1.7564    7.0306 C.3       1 <0>         0.1407 
      13 C10        9.8201    1.4911    7.0439 C.3       1 <0>        -0.0859 
      14 C11       10.3271    1.4017    5.6243 C.ar      1 <0>        -0.1215 
      15 C12       10.3624    0.1675    4.9644 C.ar      1 <0>        -0.0699 
      16 C13       10.8249    0.0812    3.6458 C.ar      1 <0>        -0.1435 
      17 C14       11.2530    1.2294    2.9789 C.ar      1 <0>         0.1289 
      18 C15       11.2354    2.4652    3.6363 C.ar      1 <0>        -0.2084 
      19 C16       10.7752    2.5473    4.9560 C.ar      1 <0>        -0.0704 
      20 O2        11.6832    1.1466    1.6808 O.3       1 <0>        -0.2897 
      21 C17       12.8213    1.9244    1.3005 C.3       1 <0>         0.0392 
      22 C18       14.0155    1.5027    2.1229 C.2       1 <0>         0.5189 
      23 O3        14.4236    2.2265    3.0299 O.2       1 <0>        -0.5164 
      24 N3        14.6253    0.3490    1.8660 N.am      1 <0>        -0.8500 
      25 C19        0.1587    3.0786    8.7309 C.2       1 <0>         0.5100 
      26 O4        -0.1876    3.3435    9.8436 O.2       1 <0>        -0.5069 
      27 O5        -0.7581    2.9656    7.7466 O.3       1 <0>        -0.3499 
      28 C20       -2.1326    3.1719    8.0832 C.3       1 <0>         0.0344 
      29 H1         4.6064    1.4177    5.3898 H         1 <0>         0.0741 
      30 H2         4.1209    3.0714    4.9571 H         1 <0>         0.0756 
      31 H3         2.9451    1.7432    4.8494 H         1 <0>         0.0654 
      32 H4         1.2797    2.4535    6.3549 H         1 <0>         0.1419 
      33 H5         2.2392    3.2545   10.4505 H         1 <0>         0.1420 
      34 H6         4.6328    2.8572    9.9569 H         1 <0>         0.1513 
      35 H7         6.0300    2.1594    6.6769 H         1 <0>         0.4099 
      36 H8         8.4615    1.7306    9.1858 H         1 <0>         0.3991 
      37 H9         8.1164    2.6938    6.5152 H         1 <0>         0.0724 
      38 H10        7.8077    0.9437    6.5154 H         1 <0>         0.0717 
      39 H11       10.0179    0.5540    7.5600 H         1 <0>         0.0798 
      40 H12       10.3265    2.3041    7.5600 H         1 <0>         0.0807 
      41 H13       10.0350   -0.7302    5.4677 H         1 <0>         0.1319 
      42 H14       10.8519   -0.8720    3.1387 H         1 <0>         0.1348 
      43 H15       11.5816    3.3486    3.1204 H         1 <0>         0.1287 
      44 H16       10.7720    3.5061    5.4531 H         1 <0>         0.1269 
      45 H17       12.6142    2.9782    1.4745 H         1 <0>         0.0958 
      46 H18       13.0325    1.7650    0.2452 H         1 <0>         0.0955 
      47 H19       14.2894   -0.2444    1.1210 H         1 <0>         0.4037 
      48 H20       15.4240    0.0670    2.4160 H         1 <0>         0.4105 
      49 H21       -2.2643    4.1824    8.4641 H         1 <0>         0.0617 
      50 H22       -2.7471    3.0352    7.1958 H         1 <0>         0.0616 
      51 H23       -2.4304    2.4547    8.8451 H         1 <0>         0.1040 
@<TRIPOS>BOND
       1        1        2 1        
       2        1       29 1        
       3        1       30 1        
       4        1       31 1        
       5        2        7 ar       
       6        2        3 ar       
       7        3        4 ar       
       8        3       32 1        
       9        4        5 ar       
      10        4       25 1        
      11        5        6 ar       
      12        5       33 1        
      13        6        7 ar       
      14        6       34 1        
      15        7        8 1        
      16        8        9 am       
      17        8       35 1        
      18        9       10 2        
      19        9       11 am       
      20       11       12 1        
      21       11       36 1        
      22       12       13 1        
      23       12       37 1        
      24       12       38 1        
      25       13       14 1        
      26       13       39 1        
      27       13       40 1        
      28       14       19 ar       
      29       14       15 ar       
      30       15       16 ar       
      31       15       41 1        
      32       16       17 ar       
      33       16       42 1        
      34       17       18 ar       
      35       17       20 1        
      36       18       19 ar       
      37       18       43 1        
      38       19       44 1        
      39       20       21 1        
      40       21       22 1        
      41       21       45 1        
      42       21       46 1        
      43       22       23 2        
      44       22       24 am       
      45       24       47 1        
      46       24       48 1        
      47       25       26 2        
      48       25       27 1        
      49       27       28 1        
      50       28       49 1        
      51       28       50 1        
      52       28       51 1        

