#        1GCZ_R01_S0001_C0000_L00007_S0001_C0035_G0010_E0001.mol2
#        Tue Jun  6 09:56:52 2017
#        Descriptor:     30     7     5    15     8    12
#        Energy - RMSD - RMSD MassCentre:     -56.0278    999.9999    999.9999
#        Receptor:       1  Surface Point:     1  Conformer:     0
#        Ligand:         7  Surface Point:     1  Conformer:    35
#        BUDE Formal Charge: 0
#        ATOM Count: 51
#        Heavy ATOM Count: 28
@<TRIPOS>MOLECULE
ZINC61408927_1GCZ_R01_S0001_C0000_L00007_S0001_C0035_G0010_E0001
 51 52 0 0 0
SMALL
USER_CHARGES
@<TRIPOS>ATOM
       1 C1         4.1650    1.4705    3.7609 C.3       1 <0>        -0.1139 
       2 C2         3.3472    0.3974    4.4387 C.ar      1 <0>        -0.1278 
       3 C3         1.9762    0.6030    4.6330 C.ar      1 <0>        -0.0331 
       4 C4         1.1932   -0.3298    5.3236 C.ar      1 <0>        -0.1443 
       5 C5         1.7930   -1.4927    5.8099 C.ar      1 <0>        -0.0449 
       6 C6         3.1543   -1.7269    5.5824 C.ar      1 <0>        -0.1321 
       7 C7         3.9306   -0.7948    4.8836 C.ar      1 <0>         0.2027 
       8 N1         5.2967   -1.0738    4.6418 N.am      1 <0>        -0.6834 
       9 C8         5.7778   -2.2926    4.8691 C.2       1 <0>         0.7034 
      10 O1         5.0227   -3.1924    5.2966 O.2       1 <0>        -0.5648 
      11 N2         7.0620   -2.5534    4.6413 N.am      1 <0>        -0.7401 
      12 C9         7.9486   -1.4942    4.1386 C.3       1 <0>         0.1407 
      13 C10        9.3600   -2.0528    3.9641 C.3       1 <0>        -0.0859 
      14 C11       10.2707   -0.9647    3.4477 C.ar      1 <0>        -0.1215 
      15 C12       10.4373   -0.7792    2.0701 C.ar      1 <0>        -0.0699 
      16 C13       11.2751    0.2331    1.5868 C.ar      1 <0>        -0.1435 
      17 C14       11.9497    1.0670    2.4789 C.ar      1 <0>         0.1289 
      18 C15       11.8008    0.8788    3.8581 C.ar      1 <0>        -0.2084 
      19 C16       10.9647   -0.1365    4.3378 C.ar      1 <0>        -0.0704 
      20 O2        12.7507    2.0720    2.0041 O.3       1 <0>        -0.2897 
      21 C17       13.9920    2.3125    2.6721 C.3       1 <0>         0.0392 
      22 C18       14.7143    3.4526    1.9948 C.2       1 <0>         0.5189 
      23 O3        14.7602    4.5576    2.5334 O.2       1 <0>        -0.5164 
      24 N3        15.3005    3.2613    0.8163 N.am      1 <0>        -0.8500 
      25 C19       -0.2508   -0.0917    5.5442 C.2       1 <0>         0.5100 
      26 O4        -0.7615    0.9063    5.1307 O.2       1 <0>        -0.5069 
      27 O5        -0.9901   -1.0024    6.2125 O.3       1 <0>        -0.3499 
      28 C20       -2.3811   -0.7290    6.4012 C.3       1 <0>         0.0344 
      29 H1         4.9056    1.0062    3.1130 H         1 <0>         0.0741 
      30 H2         4.6683    2.0725    4.5147 H         1 <0>         0.0756 
      31 H3         3.5097    2.1046    3.1675 H         1 <0>         0.0654 
      32 H4         1.5061    1.4938    4.2432 H         1 <0>         0.1419 
      33 H5         1.2111   -2.2151    6.3630 H         1 <0>         0.1420 
      34 H6         3.6151   -2.6344    5.9435 H         1 <0>         0.1513 
      35 H7         5.9068   -0.3468    4.2964 H         1 <0>         0.4099 
      36 H8         7.4274   -3.4790    4.8139 H         1 <0>         0.3991 
      37 H9         7.9690   -0.6711    4.8500 H         1 <0>         0.0724 
      38 H10        7.5782   -1.1368    3.1801 H         1 <0>         0.0717 
      39 H11        9.3382   -2.8762    3.2533 H         1 <0>         0.0798 
      40 H12        9.7289   -2.4106    4.9232 H         1 <0>         0.0807 
      41 H13        9.9224   -1.4172    1.3672 H         1 <0>         0.1319 
      42 H14       11.4026    0.3741    0.5237 H         1 <0>         0.1348 
      43 H15       12.3367    1.5178    4.5444 H         1 <0>         0.1287 
      44 H16       10.8631   -0.2741    5.4042 H         1 <0>         0.1269 
      45 H17       14.6065    1.4159    2.6280 H         1 <0>         0.0958 
      46 H18       13.7999    2.5705    3.7115 H         1 <0>         0.0955 
      47 H19       15.2621    2.3537    0.3750 H         1 <0>         0.4037 
      48 H20       15.7836    4.0239    0.3634 H         1 <0>         0.4105 
      49 H21       -2.8674   -0.6407    5.4320 H         1 <0>         0.0617 
      50 H22       -2.8366   -1.5413    6.9637 H         1 <0>         0.0616 
      51 H23       -2.4955    0.2026    6.9512 H         1 <0>         0.1040 
@<TRIPOS>BOND
       1        1        2 1        
       2        1       29 1        
       3        1       30 1        
       4        1       31 1        
       5        2        7 ar       
       6        2        3 ar       
       7        3        4 ar       
       8        3       32 1        
       9        4        5 ar       
      10        4       25 1        
      11        5        6 ar       
      12        5       33 1        
      13        6        7 ar       
      14        6       34 1        
      15        7        8 1        
      16        8        9 am       
      17        8       35 1        
      18        9       10 2        
      19        9       11 am       
      20       11       12 1        
      21       11       36 1        
      22       12       13 1        
      23       12       37 1        
      24       12       38 1        
      25       13       14 1        
      26       13       39 1        
      27       13       40 1        
      28       14       19 ar       
      29       14       15 ar       
      30       15       16 ar       
      31       15       41 1        
      32       16       17 ar       
      33       16       42 1        
      34       17       18 ar       
      35       17       20 1        
      36       18       19 ar       
      37       18       43 1        
      38       19       44 1        
      39       20       21 1        
      40       21       22 1        
      41       21       45 1        
      42       21       46 1        
      43       22       23 2        
      44       22       24 am       
      45       24       47 1        
      46       24       48 1        
      47       25       26 2        
      48       25       27 1        
      49       27       28 1        
      50       28       49 1        
      51       28       50 1        
      52       28       51 1        

