#        1GCZ_R01_S0001_C0000_L00007_S0001_C0036_G0010_E0001.mol2
#        Tue Jun  6 14:08:57 2017
#        Descriptor:     27    36     9    15    10    13
#        Energy - RMSD - RMSD MassCentre:     -61.3269    999.9999    999.9999
#        Receptor:       1  Surface Point:     1  Conformer:     0
#        Ligand:         7  Surface Point:     1  Conformer:    36
#        BUDE Formal Charge: 0
#        ATOM Count: 51
#        Heavy ATOM Count: 28
@<TRIPOS>MOLECULE
ZINC61408927_1GCZ_R01_S0001_C0000_L00007_S0001_C0036_G0010_E0001
 51 52 0 0 0
SMALL
USER_CHARGES
@<TRIPOS>ATOM
       1 C1         4.0146    1.5373    3.9370 C.3       1 <0>        -0.1139 
       2 C2         3.3203    1.7133    5.2661 C.ar      1 <0>        -0.1278 
       3 C3         1.9230    1.6483    5.3215 C.ar      1 <0>        -0.0331 
       4 C4         1.2325    1.8808    6.5170 C.ar      1 <0>        -0.1443 
       5 C5         1.9572    2.1649    7.6758 C.ar      1 <0>        -0.0449 
       6 C6         3.3564    2.1890    7.6390 C.ar      1 <0>        -0.1321 
       7 C7         4.0420    1.9473    6.4426 C.ar      1 <0>         0.2027 
       8 N1         5.4571    1.9473    6.4432 N.am      1 <0>        -0.6834 
       9 C8         6.1225    1.9473    7.5947 C.2       1 <0>         0.7034 
      10 O1         5.4974    1.9473    8.6772 O.2       1 <0>        -0.5648 
      11 N2         7.4526    1.9473    7.5937 N.am      1 <0>        -0.7401 
      12 C9         8.1861    1.9473    6.3199 C.3       1 <0>         0.1407 
      13 C10        9.6884    1.9473    6.5983 C.3       1 <0>        -0.0859 
      14 C11       10.4419    1.9473    5.2897 C.ar      1 <0>        -0.1215 
      15 C12       10.8018    0.7380    4.6831 C.ar      1 <0>        -0.0699 
      16 C13       11.4941    0.7333    3.4662 C.ar      1 <0>        -0.1435 
      17 C14       11.8288    1.9384    2.8480 C.ar      1 <0>         0.1289 
      18 C15       11.4862    3.1524    3.4552 C.ar      1 <0>        -0.2084 
      19 C16       10.7967    3.1533    4.6737 C.ar      1 <0>        -0.0704 
      20 O2        12.4855    1.9316    1.6457 O.3       1 <0>        -0.2897 
      21 C17       13.5224    2.8952    1.4424 C.3       1 <0>         0.0392 
      22 C18       14.1112    2.7163    0.0635 C.2       1 <0>         0.5189 
      23 O3        13.8460    3.5220   -0.8274 O.2       1 <0>        -0.5164 
      24 N3        14.9163    1.6876   -0.1870 N.am      1 <0>        -0.8500 
      25 C19       -0.2461    1.8330    6.5597 C.2       1 <0>         0.5100 
      26 O4        -0.8648    1.5936    5.5658 O.2       1 <0>        -0.5069 
      27 O5        -0.8950    2.0598    7.7216 O.3       1 <0>        -0.3499 
      28 C20       -2.3239    2.0030    7.7141 C.3       1 <0>         0.0344 
      29 H1         4.9317    0.9697    4.0800 H         1 <0>         0.0741 
      30 H2         4.2532    2.5140    3.5210 H         1 <0>         0.0756 
      31 H3         3.3587    1.0018    3.2539 H         1 <0>         0.0654 
      32 H4         1.3606    1.4121    4.4303 H         1 <0>         0.1419 
      33 H5         1.4430    2.3675    8.6036 H         1 <0>         0.1420 
      34 H6         3.9181    2.3919    8.5388 H         1 <0>         0.1513 
      35 H7         5.9621    1.9473    5.5686 H         1 <0>         0.4099 
      36 H8         7.9579    1.9473    8.4682 H         1 <0>         0.3991 
      37 H9         7.9222    2.8359    5.7501 H         1 <0>         0.0724 
      38 H10        7.9221    1.0588    5.7502 H         1 <0>         0.0717 
      39 H11        9.9509    1.0588    7.1687 H         1 <0>         0.0798 
      40 H12        9.9509    2.8359    7.1687 H         1 <0>         0.0807 
      41 H13       10.5504   -0.2029    5.1498 H         1 <0>         0.1319 
      42 H14       11.7713   -0.2007    3.0002 H         1 <0>         0.1348 
      43 H15       11.7605    4.0825    2.9797 H         1 <0>         0.1287 
      44 H16       10.5433    4.0970    5.1338 H         1 <0>         0.1269 
      45 H17       14.2996    2.7540    2.1904 H         1 <0>         0.0958 
      46 H18       13.1084    3.8973    1.5334 H         1 <0>         0.0955 
      47 H19       15.3101    1.5680   -1.1093 H         1 <0>         0.4037 
      48 H20       15.1333    1.0267    0.5452 H         1 <0>         0.4105 
      49 H21       -2.6451    1.0084    7.4117 H         1 <0>         0.0617 
      50 H22       -2.7001    2.2186    8.7119 H         1 <0>         0.0616 
      51 H23       -2.7118    2.7388    7.0128 H         1 <0>         0.1040 
@<TRIPOS>BOND
       1        1        2 1        
       2        1       29 1        
       3        1       30 1        
       4        1       31 1        
       5        2        7 ar       
       6        2        3 ar       
       7        3        4 ar       
       8        3       32 1        
       9        4        5 ar       
      10        4       25 1        
      11        5        6 ar       
      12        5       33 1        
      13        6        7 ar       
      14        6       34 1        
      15        7        8 1        
      16        8        9 am       
      17        8       35 1        
      18        9       10 2        
      19        9       11 am       
      20       11       12 1        
      21       11       36 1        
      22       12       13 1        
      23       12       37 1        
      24       12       38 1        
      25       13       14 1        
      26       13       39 1        
      27       13       40 1        
      28       14       19 ar       
      29       14       15 ar       
      30       15       16 ar       
      31       15       41 1        
      32       16       17 ar       
      33       16       42 1        
      34       17       18 ar       
      35       17       20 1        
      36       18       19 ar       
      37       18       43 1        
      38       19       44 1        
      39       20       21 1        
      40       21       22 1        
      41       21       45 1        
      42       21       46 1        
      43       22       23 2        
      44       22       24 am       
      45       24       47 1        
      46       24       48 1        
      47       25       26 2        
      48       25       27 1        
      49       27       28 1        
      50       28       49 1        
      51       28       50 1        
      52       28       51 1        

