#        1GCZ_R01_S0001_C0000_L00003_S0001_C0005_G0010_E0001.mol2
#        Tue Jun  6 09:54:39 2017
#        Descriptor:     25     2    33     6     8    14
#        Energy - RMSD - RMSD MassCentre:     -69.5603    999.9999    999.9999
#        Receptor:       1  Surface Point:     1  Conformer:     0
#        Ligand:         3  Surface Point:     1  Conformer:     5
#        BUDE Formal Charge: 0
#        ATOM Count: 58
#        Heavy ATOM Count: 30
@<TRIPOS>MOLECULE
ZINC61580633_1GCZ_R01_S0001_C0000_L00003_S0001_C0005_G0010_E0001
 58 59 0 0 0
SMALL
USER_CHARGES
@<TRIPOS>ATOM
       1 C1        -0.4074    1.7251   -4.6270 C.3       1 <0>        -0.1532 
       2 C2        -0.9676    1.2907   -3.2757 C.3       1 <0>        -0.1224 
       3 C3        -0.1540    0.1119   -2.7433 C.3       1 <0>        -0.1198 
       4 C4        -0.7150   -0.3231   -1.3901 C.3       1 <0>         0.0610 
       5 O1        -0.5705    0.7444   -0.4498 O.3       1 <0>        -0.3878 
       6 C5        -1.0802    0.3937    0.8396 C.3       1 <0>         0.0487 
       7 C6        -0.8975    1.5713    1.7959 C.3       1 <0>         0.1244 
       8 N1        -1.4213    1.2109    3.1212 N.am      1 <0>        -0.7216 
       9 C7        -0.7623    0.3417    3.8824 C.2       1 <0>         0.5161 
      10 O2         0.2850   -0.1605    3.4781 O.2       1 <0>        -0.5151 
      11 C8        -1.3004   -0.0285    5.2438 C.3       1 <0>         0.0490 
      12 O3        -1.1773    1.0912    6.1247 O.3       1 <0>        -0.3194 
      13 C9        -1.6095    0.9477    7.3956 C.2       1 <0>         0.5417 
      14 O4        -2.0877   -0.1133    7.7620 O.2       1 <0>        -0.5337 
      15 C10       -1.5033    2.0779    8.3449 C.2       1 <0>        -0.2559 
      16 C11       -0.9291    3.4002    8.0100 C.2       1 <0>        -0.0791 
      17 C12       -0.9396    4.2375    9.0497 C.2       1 <0>        -0.2585 
      18 S1        -1.6412    3.5118   10.5035 S.3       1 <0>         0.3028 
      19 C13       -1.9126    2.0032    9.6187 C.2       1 <0>         0.0893 
      20 N2        -2.4650    0.8638   10.1417 N.am      1 <0>        -0.6099 
      21 C14       -2.8568    0.8364   11.4124 C.2       1 <0>         0.5551 
      22 O5        -2.7232    1.8347   12.1184 O.2       1 <0>        -0.4939 
      23 C15       -3.4534   -0.3952   11.9759 C.ar      1 <0>        -0.1466 
      24 C16       -3.8490   -0.3809   13.3188 C.ar      1 <0>        -0.0772 
      25 C17       -4.3514   -1.5367   13.9283 C.ar      1 <0>        -0.1241 
      26 C18       -4.4579   -2.7322   13.2081 C.ar      1 <0>        -0.0446 
      27 C19       -4.1132   -2.7358   11.8513 C.ar      1 <0>        -0.1261 
      28 C20       -3.6387   -1.5703   11.2379 C.ar      1 <0>        -0.0460 
      29 C21       -4.9437   -3.9834   13.9003 C.3       1 <0>        -0.0928 
      30 C22       -3.7509   -4.7395   14.4784 C.3       1 <0>        -0.1485 
      31 H1        -0.4808    0.8995   -5.3317 H         1 <0>         0.0567 
      32 H2         0.6356    2.0121   -4.5111 H         1 <0>         0.0554 
      33 H3        -0.9782    2.5730   -4.9998 H         1 <0>         0.0557 
      34 H4        -0.9062    2.1195   -2.5735 H         1 <0>         0.0632 
      35 H5        -2.0066    0.9901   -3.3928 H         1 <0>         0.0635 
      36 H6        -0.2152   -0.7178   -3.4442 H         1 <0>         0.0711 
      37 H7         0.8852    0.4117   -2.6250 H         1 <0>         0.0704 
      38 H8        -1.7689   -0.5717   -1.4966 H         1 <0>         0.0498 
      39 H9        -0.1701   -1.1951   -1.0344 H         1 <0>         0.0505 
      40 H10       -0.5397   -0.4698    1.2213 H         1 <0>         0.0584 
      41 H11       -2.1382    0.1536    0.7590 H         1 <0>         0.0702 
      42 H12       -1.4382    2.4353    1.4156 H         1 <0>         0.0872 
      43 H13        0.1604    1.8119    1.8779 H         1 <0>         0.0805 
      44 H14       -2.2812    1.6227    3.4542 H         1 <0>         0.4058 
      45 H15       -2.3485   -0.3071    5.1569 H         1 <0>         0.1008 
      46 H16       -0.7334   -0.8670    5.6428 H         1 <0>         0.0999 
      47 H17       -0.5599    3.6427    7.0245 H         1 <0>         0.1557 
      48 H18       -0.5686    5.2500    8.9897 H         1 <0>         0.1929 
      49 H19       -2.5747    0.0441    9.5621 H         1 <0>         0.4317 
      50 H20       -3.7626    0.5290   13.8940 H         1 <0>         0.1287 
      51 H21       -4.6593   -1.5120   14.9631 H         1 <0>         0.1326 
      52 H22       -4.2222   -3.6486   11.2843 H         1 <0>         0.1342 
      53 H23       -3.4451   -1.6177   10.1765 H         1 <0>         0.1410 
      54 H24       -5.4618   -4.6161   13.1828 H         1 <0>         0.0777 
      55 H25       -5.6254   -3.7114   14.7034 H         1 <0>         0.0771 
      56 H26       -3.2411   -4.1103   15.2049 H         1 <0>         0.0623 
      57 H27       -3.0631   -4.9985   13.6762 H         1 <0>         0.0572 
      58 H28       -4.0997   -5.6476   14.9655 H         1 <0>         0.0578 
@<TRIPOS>BOND
       1        1        2 1        
       2        1       31 1        
       3        1       32 1        
       4        1       33 1        
       5        2        3 1        
       6        2       34 1        
       7        2       35 1        
       8        3        4 1        
       9        3       36 1        
      10        3       37 1        
      11        4        5 1        
      12        4       38 1        
      13        4       39 1        
      14        5        6 1        
      15        6        7 1        
      16        6       40 1        
      17        6       41 1        
      18        7        8 1        
      19        7       42 1        
      20        7       43 1        
      21        8        9 am       
      22        8       44 1        
      23        9       10 2        
      24        9       11 1        
      25       11       12 1        
      26       11       45 1        
      27       11       46 1        
      28       12       13 1        
      29       13       14 2        
      30       13       15 1        
      31       15       19 2        
      32       15       16 1        
      33       16       17 2        
      34       16       47 1        
      35       17       18 1        
      36       17       48 1        
      37       18       19 1        
      38       19       20 1        
      39       20       21 am       
      40       20       49 1        
      41       21       22 2        
      42       21       23 1        
      43       23       28 ar       
      44       23       24 ar       
      45       24       25 ar       
      46       24       50 1        
      47       25       26 ar       
      48       25       51 1        
      49       26       27 ar       
      50       26       29 1        
      51       27       28 ar       
      52       27       52 1        
      53       28       53 1        
      54       29       30 1        
      55       29       54 1        
      56       29       55 1        
      57       30       56 1        
      58       30       57 1        
      59       30       58 1        

