#        1GCZ_R01_S0001_C0000_L00007_S0001_C0037_G0010_E0001.mol2
#        Tue Jun  6 09:56:54 2017
#        Descriptor:     26    34    28    15     9    13
#        Energy - RMSD - RMSD MassCentre:     -63.0670    999.9999    999.9999
#        Receptor:       1  Surface Point:     1  Conformer:     0
#        Ligand:         7  Surface Point:     1  Conformer:    37
#        BUDE Formal Charge: 0
#        ATOM Count: 51
#        Heavy ATOM Count: 28
@<TRIPOS>MOLECULE
ZINC61408927_1GCZ_R01_S0001_C0000_L00007_S0001_C0037_G0010_E0001
 51 52 0 0 0
SMALL
USER_CHARGES
@<TRIPOS>ATOM
       1 C1         9.5879    2.3448    3.8371 C.3       1 <0>        -0.1139 
       2 C2        10.5879    1.9405    4.8936 C.ar      1 <0>        -0.1278 
       3 C3        11.9307    2.3046    4.7391 C.ar      1 <0>        -0.0331 
       4 C4        12.9056    1.8874    5.6532 C.ar      1 <0>        -0.1443 
       5 C5        12.5225    1.1088    6.7467 C.ar      1 <0>        -0.0449 
       6 C6        11.1754    0.7764    6.9327 C.ar      1 <0>        -0.1321 
       7 C7        10.2036    1.2036    6.0200 C.ar      1 <0>         0.2027 
       8 N1         8.8459    0.8786    6.2515 N.am      1 <0>        -0.6834 
       9 C8         8.4717    0.3787    7.4257 C.2       1 <0>         0.7034 
      10 O1         9.3199    0.1957    8.3255 O.2       1 <0>        -0.5648 
      11 N2         7.1952    0.0737    7.6418 N.am      1 <0>        -0.7401 
      12 C9         6.1990    0.2895    6.5827 C.3       1 <0>         0.1407 
      13 C10        4.8214   -0.1392    7.0855 C.3       1 <0>        -0.0859 
      14 C11        3.7981    0.0824    5.9974 C.ar      1 <0>        -0.1215 
      15 C12        3.1162    1.3019    5.9084 C.ar      1 <0>        -0.0699 
      16 C13        2.1719    1.5143    4.8968 C.ar      1 <0>        -0.1435 
      17 C14        1.9055    0.5087    3.9672 C.ar      1 <0>         0.1289 
      18 C15        2.5717   -0.7192    4.0580 C.ar      1 <0>        -0.2084 
      19 C16        3.5130   -0.9293    5.0728 C.ar      1 <0>        -0.0704 
      20 O2         0.9983    0.7268    2.9641 O.3       1 <0>        -0.2897 
      21 C17        0.1139   -0.3416    2.6155 C.3       1 <0>         0.0392 
      22 C18       -0.7967    0.1047    1.4968 C.2       1 <0>         0.5189 
      23 O3        -0.6152   -0.3114    0.3535 O.2       1 <0>        -0.5164 
      24 N3        -1.7945    0.9474    1.7481 N.am      1 <0>        -0.8500 
      25 C19       14.3264    2.2581    5.4678 C.2       1 <0>         0.5100 
      26 O4        15.1463    1.8940    6.2572 O.2       1 <0>        -0.5069 
      27 O5        14.6952    3.0074    4.4072 O.3       1 <0>        -0.3499 
      28 C20       16.0791    3.3405    4.2700 C.3       1 <0>         0.0344 
      29 H1         8.6481    2.6165    4.3132 H         1 <0>         0.0741 
      30 H2         9.4229    1.5117    3.1570 H         1 <0>         0.0756 
      31 H3         9.9731    3.1969    3.2811 H         1 <0>         0.0654 
      32 H4        12.2273    2.9210    3.9033 H         1 <0>         0.1419 
      33 H5        13.2619    0.7595    7.4521 H         1 <0>         0.1420 
      34 H6        10.8761    0.1884    7.7876 H         1 <0>         0.1513 
      35 H7         8.1606    1.0264    5.5245 H         1 <0>         0.4099 
      36 H8         6.9110   -0.3060    8.5335 H         1 <0>         0.3991 
      37 H9         6.4665   -0.3004    5.7084 H         1 <0>         0.0724 
      38 H10        6.1766    1.3441    6.3163 H         1 <0>         0.0717 
      39 H11        4.5554    0.4507    7.9601 H         1 <0>         0.0798 
      40 H12        4.8454   -1.1938    7.3523 H         1 <0>         0.0807 
      41 H13        3.3110    2.0896    6.6211 H         1 <0>         0.1319 
      42 H14        1.6465    2.4555    4.8303 H         1 <0>         0.1348 
      43 H15        2.3511   -1.4995    3.3446 H         1 <0>         0.1287 
      44 H16        4.0158   -1.8832    5.1345 H         1 <0>         0.1269 
      45 H17       -0.4832   -0.6148    3.4829 H         1 <0>         0.0958 
      46 H18        0.6956   -1.2014    2.2895 H         1 <0>         0.0955 
      47 H19       -1.9426    1.2884    2.6872 H         1 <0>         0.4037 
      48 H20       -2.4036    1.2458    0.9998 H         1 <0>         0.4105 
      49 H21       16.6636    2.4278    4.1758 H         1 <0>         0.0617 
      50 H22       16.2176    3.9538    3.3821 H         1 <0>         0.0616 
      51 H23       16.4073    3.8930    5.1479 H         1 <0>         0.1040 
@<TRIPOS>BOND
       1        1        2 1        
       2        1       29 1        
       3        1       30 1        
       4        1       31 1        
       5        2        7 ar       
       6        2        3 ar       
       7        3        4 ar       
       8        3       32 1        
       9        4        5 ar       
      10        4       25 1        
      11        5        6 ar       
      12        5       33 1        
      13        6        7 ar       
      14        6       34 1        
      15        7        8 1        
      16        8        9 am       
      17        8       35 1        
      18        9       10 2        
      19        9       11 am       
      20       11       12 1        
      21       11       36 1        
      22       12       13 1        
      23       12       37 1        
      24       12       38 1        
      25       13       14 1        
      26       13       39 1        
      27       13       40 1        
      28       14       19 ar       
      29       14       15 ar       
      30       15       16 ar       
      31       15       41 1        
      32       16       17 ar       
      33       16       42 1        
      34       17       18 ar       
      35       17       20 1        
      36       18       19 ar       
      37       18       43 1        
      38       19       44 1        
      39       20       21 1        
      40       21       22 1        
      41       21       45 1        
      42       21       46 1        
      43       22       23 2        
      44       22       24 am       
      45       24       47 1        
      46       24       48 1        
      47       25       26 2        
      48       25       27 1        
      49       27       28 1        
      50       28       49 1        
      51       28       50 1        
      52       28       51 1        

