#        1GCZ_R01_S0001_C0000_L00007_S0001_C0038_G0010_E0001.mol2
#        Tue Jun  6 14:09:01 2017
#        Descriptor:      9    11    27    15     9    13
#        Energy - RMSD - RMSD MassCentre:     -62.6920    999.9999    999.9999
#        Receptor:       1  Surface Point:     1  Conformer:     0
#        Ligand:         7  Surface Point:     1  Conformer:    38
#        BUDE Formal Charge: 0
#        ATOM Count: 51
#        Heavy ATOM Count: 28
@<TRIPOS>MOLECULE
ZINC61408927_1GCZ_R01_S0001_C0000_L00007_S0001_C0038_G0010_E0001
 51 52 0 0 0
SMALL
USER_CHARGES
@<TRIPOS>ATOM
       1 C1         4.0184    1.6891    4.2975 C.3       1 <0>        -0.1139 
       2 C2         3.3241    0.5003    4.9174 C.ar      1 <0>        -0.1278 
       3 C3         1.9268    0.4260    4.8753 C.ar      1 <0>        -0.0331 
       4 C4         1.2363   -0.6179    5.5027 C.ar      1 <0>        -0.1443 
       5 C5         1.9610   -1.6096    6.1660 C.ar      1 <0>        -0.0449 
       6 C6         3.3602   -1.5668    6.1760 C.ar      1 <0>        -0.1321 
       7 C7         4.0458   -0.5252    5.5397 C.ar      1 <0>         0.2027 
       8 N1         5.4609   -0.5258    5.5399 N.am      1 <0>        -0.6834 
       9 C8         6.1263   -1.6078    5.9337 C.2       1 <0>         0.7034 
      10 O1         5.5012   -2.6250    6.3040 O.2       1 <0>        -0.5648 
      11 N2         7.4564   -1.6069    5.9334 N.am      1 <0>        -0.7401 
      12 C9         8.1899   -0.4099    5.4977 C.3       1 <0>         0.1407 
      13 C10        9.6922   -0.6715    5.5929 C.3       1 <0>        -0.0859 
      14 C11       10.4457    0.5582    5.1454 C.ar      1 <0>        -0.1215 
      15 C12       10.8056    0.7146    3.8015 C.ar      1 <0>        -0.0699 
      16 C13       11.4979    1.8565    3.3809 C.ar      1 <0>        -0.1435 
      17 C14       11.8326    2.8496    4.3019 C.ar      1 <0>         0.1289 
      18 C15       11.4900    2.6942    5.6504 C.ar      1 <0>        -0.2084 
      19 C16       10.8005    1.5495    6.0680 C.ar      1 <0>        -0.0704 
      20 O2        12.4893    3.9770    3.8843 O.3       1 <0>        -0.2897 
      21 C17       13.5262    4.4977    4.7203 C.3       1 <0>         0.0392 
      22 C18       14.1150    5.7322    4.0805 C.2       1 <0>         0.5189 
      23 O3        13.8498    6.8450    4.5329 O.2       1 <0>        -0.5164 
      24 N3        14.9201    5.6158    3.0282 N.am      1 <0>        -0.8500 
      25 C19       -0.2423   -0.6743    5.4723 C.2       1 <0>         0.5100 
      26 O4        -0.8167   -1.5721    6.0128 O.2       1 <0>        -0.5069 
      27 O5        -0.9412    0.2882    4.8341 O.3       1 <0>        -0.3499 
      28 C20       -2.3680    0.1913    4.8316 C.3       1 <0>         0.0344 
      29 H1         4.9355    1.3606    3.8130 H         1 <0>         0.0741 
      30 H2         4.2570    2.4140    5.0730 H         1 <0>         0.0756 
      31 H3         3.3625    2.1478    3.5606 H         1 <0>         0.0654 
      32 H4         1.3644    1.1827    4.3485 H         1 <0>         0.1419 
      33 H5         1.4468   -2.4122    6.6737 H         1 <0>         0.1420 
      34 H6         3.9219   -2.3429    6.6744 H         1 <0>         0.1513 
      35 H7         5.9659    0.2961    5.2408 H         1 <0>         0.4099 
      36 H8         7.9617   -2.4286    6.2325 H         1 <0>         0.3991 
      37 H9         7.9260    0.4295    6.1379 H         1 <0>         0.0724 
      38 H10        7.9259   -0.1784    4.4680 H         1 <0>         0.0717 
      39 H11        9.9547   -1.5114    4.9531 H         1 <0>         0.0798 
      40 H12        9.9547   -0.9036    6.6230 H         1 <0>         0.0807 
      41 H13       10.5542   -0.0458    3.0770 H         1 <0>         0.1319 
      42 H14       11.7751    1.9749    2.3439 H         1 <0>         0.1348 
      43 H15       11.7643    3.4591    6.3617 H         1 <0>         0.1287 
      44 H16       10.5471    1.4399    7.1121 H         1 <0>         0.1269 
      45 H17       14.3034    3.7465    4.8434 H         1 <0>         0.0958 
      46 H18       13.1122    4.7549    5.6930 H         1 <0>         0.0955 
      47 H19       15.3139    6.4415    2.6004 H         1 <0>         0.4037 
      48 H20       15.1371    4.7017    2.6576 H         1 <0>         0.4105 
      49 H21       -2.7347    0.2211    5.8555 H         1 <0>         0.0617 
      50 H22       -2.7865    1.0248    4.2715 H         1 <0>         0.0616 
      51 H23       -2.6664   -0.7455    4.3660 H         1 <0>         0.1040 
@<TRIPOS>BOND
       1        1        2 1        
       2        1       29 1        
       3        1       30 1        
       4        1       31 1        
       5        2        7 ar       
       6        2        3 ar       
       7        3        4 ar       
       8        3       32 1        
       9        4        5 ar       
      10        4       25 1        
      11        5        6 ar       
      12        5       33 1        
      13        6        7 ar       
      14        6       34 1        
      15        7        8 1        
      16        8        9 am       
      17        8       35 1        
      18        9       10 2        
      19        9       11 am       
      20       11       12 1        
      21       11       36 1        
      22       12       13 1        
      23       12       37 1        
      24       12       38 1        
      25       13       14 1        
      26       13       39 1        
      27       13       40 1        
      28       14       19 ar       
      29       14       15 ar       
      30       15       16 ar       
      31       15       41 1        
      32       16       17 ar       
      33       16       42 1        
      34       17       18 ar       
      35       17       20 1        
      36       18       19 ar       
      37       18       43 1        
      38       19       44 1        
      39       20       21 1        
      40       21       22 1        
      41       21       45 1        
      42       21       46 1        
      43       22       23 2        
      44       22       24 am       
      45       24       47 1        
      46       24       48 1        
      47       25       26 2        
      48       25       27 1        
      49       27       28 1        
      50       28       49 1        
      51       28       50 1        
      52       28       51 1        

