#        1GCZ_R01_S0001_C0000_L00007_S0001_C0039_G0010_E0001.mol2
#        Tue Jun  6 09:56:55 2017
#        Descriptor:     10    31    29    15     8    13
#        Energy - RMSD - RMSD MassCentre:     -60.4541    999.9999    999.9999
#        Receptor:       1  Surface Point:     1  Conformer:     0
#        Ligand:         7  Surface Point:     1  Conformer:    39
#        BUDE Formal Charge: 0
#        ATOM Count: 51
#        Heavy ATOM Count: 28
@<TRIPOS>MOLECULE
ZINC61408927_1GCZ_R01_S0001_C0000_L00007_S0001_C0039_G0010_E0001
 51 52 0 0 0
SMALL
USER_CHARGES
@<TRIPOS>ATOM
       1 C1         4.4113   -2.2411    8.1740 C.3       1 <0>        -0.1139 
       2 C2         3.6499   -1.4733    7.1203 C.ar      1 <0>        -0.1278 
       3 C3         2.2737   -1.6874    6.9791 C.ar      1 <0>        -0.0331 
       4 C4         1.5410   -1.0556    5.9671 C.ar      1 <0>        -0.1443 
       5 C5         2.1971   -0.1834    5.0969 C.ar      1 <0>        -0.0449 
       6 C6         3.5644    0.0701    5.2579 C.ar      1 <0>        -0.1321 
       7 C7         4.2904   -0.5578    6.2769 C.ar      1 <0>         0.2027 
       8 N1         5.6643   -0.2576    6.4345 N.am      1 <0>        -0.6834 
       9 C8         6.2011    0.7680    5.7798 C.2       1 <0>         0.7034 
      10 O1         5.4915    1.4673    5.0248 O.2       1 <0>        -0.5648 
      11 N2         7.4926    1.0490    5.9289 N.am      1 <0>        -0.7401 
      12 C9         8.3256    0.2257    6.8171 C.3       1 <0>         0.1407 
      13 C10        9.7578    0.7578    6.8086 C.3       1 <0>        -0.0859 
      14 C11       10.3331    0.6299    5.4183 C.ar      1 <0>        -0.1215 
      15 C12       11.0214   -0.5302    5.0439 C.ar      1 <0>        -0.0699 
      16 C13       11.5501   -0.6561    3.7536 C.ar      1 <0>        -0.1435 
      17 C14       11.3916    0.3771    2.8296 C.ar      1 <0>         0.1289 
      18 C15       10.7177    1.5469    3.2003 C.ar      1 <0>        -0.2084 
      19 C16       10.1932    1.6707    4.4925 C.ar      1 <0>        -0.0704 
      20 O2        11.8891    0.2426    1.5603 O.3       1 <0>        -0.2897 
      21 C17       12.5103    1.3817    0.9591 C.3       1 <0>         0.0392 
      22 C18       13.6995    1.8022    1.7895 C.2       1 <0>         0.5189 
      23 O3        13.6326    2.8090    2.4931 O.2       1 <0>        -0.5164 
      24 N3        14.8183    1.0836    1.7597 N.am      1 <0>        -0.8500 
      25 C19        0.0908   -1.3072    5.8117 C.2       1 <0>         0.5100 
      26 O4        -0.4682   -2.0572    6.5552 O.2       1 <0>        -0.5069 
      27 O5        -0.5995   -0.6889    4.8300 O.3       1 <0>        -0.3499 
      28 C20       -1.9987   -0.9630    4.7188 C.3       1 <0>         0.0344 
      29 H1         5.1634   -1.5941    8.6207 H         1 <0>         0.0741 
      30 H2         4.8972   -3.1001    7.7158 H         1 <0>         0.0756 
      31 H3         3.7216   -2.5814    8.9434 H         1 <0>         0.0654 
      32 H4         1.7602   -2.3486    7.6614 H         1 <0>         0.1419 
      33 H5         1.6544    0.2981    4.2969 H         1 <0>         0.1420 
      34 H6         4.0691    0.7579    4.5955 H         1 <0>         0.1513 
      35 H7         6.2376   -0.8226    7.0445 H         1 <0>         0.4099 
      36 H8         7.9003    1.8279    5.4317 H         1 <0>         0.3991 
      37 H9         8.3188   -0.8047    6.4677 H         1 <0>         0.0724 
      38 H10        7.9280    0.2688    7.8289 H         1 <0>         0.0717 
      39 H11       10.3622    0.1819    7.5062 H         1 <0>         0.0798 
      40 H12        9.7571    1.8043    7.1065 H         1 <0>         0.0807 
      41 H13       11.1529   -1.3384    5.7482 H         1 <0>         0.1319 
      42 H14       12.0813   -1.5516    3.4670 H         1 <0>         0.1348 
      43 H15       10.6105    2.3497    2.4859 H         1 <0>         0.1287 
      44 H16        9.6803    2.5806    4.7670 H         1 <0>         0.1269 
      45 H17       11.7950    2.1998    0.9087 H         1 <0>         0.0958 
      46 H18       12.8410    1.1259   -0.0453 H         1 <0>         0.0955 
      47 H19       14.8719    0.2571    1.1817 H         1 <0>         0.4037 
      48 H20       15.6135    1.3647    2.3151 H         1 <0>         0.4105 
      49 H21       -2.5005   -0.6627    5.6363 H         1 <0>         0.0617 
      50 H22       -2.4112   -0.4063    3.8800 H         1 <0>         0.0616 
      51 H23       -2.1470   -2.0285    4.5558 H         1 <0>         0.1040 
@<TRIPOS>BOND
       1        1        2 1        
       2        1       29 1        
       3        1       30 1        
       4        1       31 1        
       5        2        7 ar       
       6        2        3 ar       
       7        3        4 ar       
       8        3       32 1        
       9        4        5 ar       
      10        4       25 1        
      11        5        6 ar       
      12        5       33 1        
      13        6        7 ar       
      14        6       34 1        
      15        7        8 1        
      16        8        9 am       
      17        8       35 1        
      18        9       10 2        
      19        9       11 am       
      20       11       12 1        
      21       11       36 1        
      22       12       13 1        
      23       12       37 1        
      24       12       38 1        
      25       13       14 1        
      26       13       39 1        
      27       13       40 1        
      28       14       19 ar       
      29       14       15 ar       
      30       15       16 ar       
      31       15       41 1        
      32       16       17 ar       
      33       16       42 1        
      34       17       18 ar       
      35       17       20 1        
      36       18       19 ar       
      37       18       43 1        
      38       19       44 1        
      39       20       21 1        
      40       21       22 1        
      41       21       45 1        
      42       21       46 1        
      43       22       23 2        
      44       22       24 am       
      45       24       47 1        
      46       24       48 1        
      47       25       26 2        
      48       25       27 1        
      49       27       28 1        
      50       28       49 1        
      51       28       50 1        
      52       28       51 1        

