#        1GCZ_R01_S0001_C0000_L00007_S0001_C0041_G0010_E0001.mol2
#        Tue Jun  6 09:56:57 2017
#        Descriptor:     13     2    28    15     9    13
#        Energy - RMSD - RMSD MassCentre:     -65.4913    999.9999    999.9999
#        Receptor:       1  Surface Point:     1  Conformer:     0
#        Ligand:         7  Surface Point:     1  Conformer:    41
#        BUDE Formal Charge: 0
#        ATOM Count: 51
#        Heavy ATOM Count: 28
@<TRIPOS>MOLECULE
ZINC61408927_1GCZ_R01_S0001_C0000_L00007_S0001_C0041_G0010_E0001
 51 52 0 0 0
SMALL
USER_CHARGES
@<TRIPOS>ATOM
       1 C1         1.6668    2.2879    7.4316 C.3       1 <0>        -0.1139 
       2 C2         2.1001    1.6877    6.1157 C.ar      1 <0>        -0.1278 
       3 C3         1.1263    1.2514    5.2096 C.ar      1 <0>        -0.0331 
       4 C4         1.4808    0.6198    4.0114 C.ar      1 <0>        -0.1443 
       5 C5         2.8325    0.4406    3.7122 C.ar      1 <0>        -0.0449 
       6 C6         3.8136    0.9127    4.5921 C.ar      1 <0>        -0.1321 
       7 C7         3.4534    1.5512    5.7847 C.ar      1 <0>         0.2027 
       8 N1         4.4674    2.0457    6.6391 N.am      1 <0>        -0.6834 
       9 C8         5.7253    2.1097    6.2121 C.2       1 <0>         0.7034 
      10 O1         6.0121    1.7327    5.0553 O.2       1 <0>        -0.5648 
      11 N2         6.6773    2.5748    7.0162 N.am      1 <0>        -0.7401 
      12 C9         8.0676    2.6455    6.5442 C.3       1 <0>         0.1407 
      13 C10        8.5560    1.2420    6.1892 C.3       1 <0>        -0.0859 
      14 C11        9.9841    1.3146    5.7043 C.ar      1 <0>        -0.1215 
      15 C12       10.2587    1.4897    4.3427 C.ar      1 <0>        -0.0699 
      16 C13       11.5813    1.5649    3.8898 C.ar      1 <0>        -0.1435 
      17 C14       12.6371    1.4672    4.7966 C.ar      1 <0>         0.1289 
      18 C15       12.3719    1.2768    6.1579 C.ar      1 <0>        -0.2084 
      19 C16       11.0480    1.1990    6.6069 C.ar      1 <0>        -0.0704 
      20 O2        13.9302    1.5645    4.3546 O.3       1 <0>        -0.2897 
      21 C17       14.9032    0.6882    4.9293 C.3       1 <0>         0.0392 
      22 C18       14.5150   -0.7445    4.6522 C.2       1 <0>         0.5189 
      23 O3        14.0549   -1.4422    5.5548 O.2       1 <0>        -0.5164 
      24 N3        14.6706   -1.2512    3.4324 N.am      1 <0>        -0.8500 
      25 C19        0.4430    0.1410    3.0712 C.2       1 <0>         0.5100 
      26 O4        -0.7136    0.2918    3.3311 O.2       1 <0>        -0.5069 
      27 O5         0.8036   -0.4658    1.9205 O.3       1 <0>        -0.3499 
      28 C20       -0.2342   -0.9116    1.0434 C.3       1 <0>         0.0344 
      29 H1         2.3281    3.1127    7.6885 H         1 <0>         0.0741 
      30 H2         1.7148    1.5283    8.2092 H         1 <0>         0.0756 
      31 H3         0.6462    2.6542    7.3440 H         1 <0>         0.0654 
      32 H4         0.0802    1.4039    5.4306 H         1 <0>         0.1419 
      33 H5         3.1268   -0.0625    2.8030 H         1 <0>         0.1420 
      34 H6         4.8596    0.7896    4.3530 H         1 <0>         0.1513 
      35 H7         4.2356    2.3503    7.5737 H         1 <0>         0.4099 
      36 H8         6.4444    2.8791    7.9506 H         1 <0>         0.3991 
      37 H9         8.6958    3.0609    7.3294 H         1 <0>         0.0724 
      38 H10        8.1189    3.2818    5.6632 H         1 <0>         0.0717 
      39 H11        7.9266    0.8273    5.4045 H         1 <0>         0.0798 
      40 H12        8.5035    0.6066    7.0708 H         1 <0>         0.0807 
      41 H13        9.4522    1.5662    3.6286 H         1 <0>         0.1319 
      42 H14       11.7909    1.6993    2.8389 H         1 <0>         0.1348 
      43 H15       13.1930    1.1873    6.8536 H         1 <0>         0.1287 
      44 H16       10.8577    1.0466    7.6590 H         1 <0>         0.1269 
      45 H17       14.9473    0.8512    6.0041 H         1 <0>         0.0958 
      46 H18       15.8778    0.8918    4.4905 H         1 <0>         0.0955 
      47 H19       15.0485   -0.6774    2.6920 H         1 <0>         0.4037 
      48 H20       14.4109   -2.2094    3.2470 H         1 <0>         0.4105 
      49 H21       -0.8317   -0.0591    0.7269 H         1 <0>         0.0617 
      50 H22        0.2086   -1.3887    0.1716 H         1 <0>         0.0616 
      51 H23       -0.8678   -1.6254    1.5655 H         1 <0>         0.1040 
@<TRIPOS>BOND
       1        1        2 1        
       2        1       29 1        
       3        1       30 1        
       4        1       31 1        
       5        2        7 ar       
       6        2        3 ar       
       7        3        4 ar       
       8        3       32 1        
       9        4        5 ar       
      10        4       25 1        
      11        5        6 ar       
      12        5       33 1        
      13        6        7 ar       
      14        6       34 1        
      15        7        8 1        
      16        8        9 am       
      17        8       35 1        
      18        9       10 2        
      19        9       11 am       
      20       11       12 1        
      21       11       36 1        
      22       12       13 1        
      23       12       37 1        
      24       12       38 1        
      25       13       14 1        
      26       13       39 1        
      27       13       40 1        
      28       14       19 ar       
      29       14       15 ar       
      30       15       16 ar       
      31       15       41 1        
      32       16       17 ar       
      33       16       42 1        
      34       17       18 ar       
      35       17       20 1        
      36       18       19 ar       
      37       18       43 1        
      38       19       44 1        
      39       20       21 1        
      40       21       22 1        
      41       21       45 1        
      42       21       46 1        
      43       22       23 2        
      44       22       24 am       
      45       24       47 1        
      46       24       48 1        
      47       25       26 2        
      48       25       27 1        
      49       27       28 1        
      50       28       49 1        
      51       28       50 1        
      52       28       51 1        

