#        1GCZ_R01_S0001_C0000_L00007_S0001_C0041_G0010_E0001.mol2
#        Tue Jun  6 14:09:07 2017
#        Descriptor:     13    36    29    15     9    13
#        Energy - RMSD - RMSD MassCentre:     -67.8866    999.9999    999.9999
#        Receptor:       1  Surface Point:     1  Conformer:     0
#        Ligand:         7  Surface Point:     1  Conformer:    41
#        BUDE Formal Charge: 0
#        ATOM Count: 51
#        Heavy ATOM Count: 28
@<TRIPOS>MOLECULE
ZINC61408927_1GCZ_R01_S0001_C0000_L00007_S0001_C0041_G0010_E0001
 51 52 0 0 0
SMALL
USER_CHARGES
@<TRIPOS>ATOM
       1 C1         1.8539    0.4363    8.0355 C.3       1 <0>        -0.1139 
       2 C2         2.2171    0.3812    6.5711 C.ar      1 <0>        -0.1278 
       3 C3         1.2225    0.0884    5.6305 C.ar      1 <0>        -0.0331 
       4 C4         1.5271   -0.0482    4.2708 C.ar      1 <0>        -0.1443 
       5 C5         2.8459    0.1295    3.8489 C.ar      1 <0>        -0.0449 
       6 C6         3.8391    0.4654    4.7765 C.ar      1 <0>        -0.1321 
       7 C7         3.5273    0.6091    6.1337 C.ar      1 <0>         0.2027 
       8 N1         4.5463    0.9800    7.0429 N.am      1 <0>        -0.6834 
       9 C8         5.7208    1.4075    6.5885 C.2       1 <0>         0.7034 
      10 O1         5.9247    1.4817    5.3574 O.2       1 <0>        -0.5648 
      11 N2         6.6777    1.7557    7.4442 N.am      1 <0>        -0.7401 
      12 C9         7.9759    2.2282    6.9419 C.3       1 <0>         0.1407 
      13 C10        8.6288    1.1281    6.1066 C.3       1 <0>        -0.0859 
      14 C11        9.9622    1.6134    5.5906 C.ar      1 <0>        -0.1215 
      15 C12       10.0455    2.2641    4.3538 C.ar      1 <0>        -0.0699 
      16 C13       11.2788    2.7222    3.8749 C.ar      1 <0>        -0.1435 
      17 C14       12.4358    2.5338    4.6314 C.ar      1 <0>         0.1289 
      18 C15       12.3641    1.8707    5.8623 C.ar      1 <0>        -0.2084 
      19 C16       11.1295    1.4112    6.3366 C.ar      1 <0>        -0.0704 
      20 O2        13.6380    3.0035    4.1721 O.3       1 <0>        -0.2897 
      21 C17       14.7943    2.1832    4.3592 C.3       1 <0>         0.0392 
      22 C18       14.6007    0.8700    3.6393 C.2       1 <0>         0.5189 
      23 O3        14.3618   -0.1526    4.2797 O.2       1 <0>        -0.5164 
      24 N3        14.6884    0.8199    2.3131 N.am      1 <0>        -0.8500 
      25 C19        0.4722   -0.3813    3.2877 C.2       1 <0>         0.5100 
      26 O4        -0.6554   -0.5369    3.6513 O.2       1 <0>        -0.5069 
      27 O5         0.7844   -0.5089    1.9805 O.3       1 <0>        -0.3499 
      28 C20       -0.2681   -0.8316    1.0678 C.3       1 <0>         0.0344 
      29 H1         2.4063    1.2414    8.5154 H         1 <0>         0.0741 
      30 H2         2.1084   -0.5104    8.5075 H         1 <0>         0.0756 
      31 H3         0.7860    0.6175    8.1372 H         1 <0>         0.0654 
      32 H4         0.1986   -0.0329    5.9516 H         1 <0>         0.1419 
      33 H5         3.1054    0.0084    2.8077 H         1 <0>         0.1420 
      34 H6         4.8563    0.6197    4.4483 H         1 <0>         0.1513 
      35 H7         4.3816    0.9200    8.0374 H         1 <0>         0.4099 
      36 H8         6.5119    1.6954    8.4386 H         1 <0>         0.3991 
      37 H9         8.6205    2.4771    7.7824 H         1 <0>         0.0724 
      38 H10        7.8256    3.1119    6.3253 H         1 <0>         0.0717 
      39 H11        7.9830    0.8795    5.2669 H         1 <0>         0.0798 
      40 H12        8.7779    0.2448    6.7241 H         1 <0>         0.0807 
      41 H13        9.1589    2.4167    3.7564 H         1 <0>         0.1319 
      42 H14       11.3410    3.2233    2.9203 H         1 <0>         0.1348 
      43 H15       13.2648    1.7146    6.4371 H         1 <0>         0.1287 
      44 H16       11.0892    0.8965    7.2853 H         1 <0>         0.1269 
      45 H17       14.9384    1.9973    5.4214 H         1 <0>         0.0958 
      46 H18       15.6681    2.6922    3.9576 H         1 <0>         0.0955 
      47 H19       14.8846    1.6603    1.7882 H         1 <0>         0.4037 
      48 H20       14.5589   -0.0583    1.8316 H         1 <0>         0.4105 
      49 H21       -1.0222   -0.0476    1.0929 H         1 <0>         0.0617 
      50 H22        0.1375   -0.9134    0.0616 H         1 <0>         0.0616 
      51 H23       -0.7193   -1.7788    1.3556 H         1 <0>         0.1040 
@<TRIPOS>BOND
       1        1        2 1        
       2        1       29 1        
       3        1       30 1        
       4        1       31 1        
       5        2        7 ar       
       6        2        3 ar       
       7        3        4 ar       
       8        3       32 1        
       9        4        5 ar       
      10        4       25 1        
      11        5        6 ar       
      12        5       33 1        
      13        6        7 ar       
      14        6       34 1        
      15        7        8 1        
      16        8        9 am       
      17        8       35 1        
      18        9       10 2        
      19        9       11 am       
      20       11       12 1        
      21       11       36 1        
      22       12       13 1        
      23       12       37 1        
      24       12       38 1        
      25       13       14 1        
      26       13       39 1        
      27       13       40 1        
      28       14       19 ar       
      29       14       15 ar       
      30       15       16 ar       
      31       15       41 1        
      32       16       17 ar       
      33       16       42 1        
      34       17       18 ar       
      35       17       20 1        
      36       18       19 ar       
      37       18       43 1        
      38       19       44 1        
      39       20       21 1        
      40       21       22 1        
      41       21       45 1        
      42       21       46 1        
      43       22       23 2        
      44       22       24 am       
      45       24       47 1        
      46       24       48 1        
      47       25       26 2        
      48       25       27 1        
      49       27       28 1        
      50       28       49 1        
      51       28       50 1        
      52       28       51 1        

