#        1GCZ_R01_S0001_C0000_L00003_S0001_C0005_G0010_E0001.mol2
#        Tue Jun  6 14:03:35 2017
#        Descriptor:     25     3    30     6     9    13
#        Energy - RMSD - RMSD MassCentre:     -70.6325    999.9999    999.9999
#        Receptor:       1  Surface Point:     1  Conformer:     0
#        Ligand:         3  Surface Point:     1  Conformer:     5
#        BUDE Formal Charge: 0
#        ATOM Count: 58
#        Heavy ATOM Count: 30
@<TRIPOS>MOLECULE
ZINC61580633_1GCZ_R01_S0001_C0000_L00003_S0001_C0005_G0010_E0001
 58 59 0 0 0
SMALL
USER_CHARGES
@<TRIPOS>ATOM
       1 C1         1.1606    0.1064   -5.3758 C.3       1 <0>        -0.1532 
       2 C2         0.3429    0.2099   -4.0916 C.3       1 <0>        -0.1224 
       3 C3         0.4020   -1.1206   -3.3426 C.3       1 <0>        -0.1198 
       4 C4        -0.4168   -1.0169   -2.0565 C.3       1 <0>         0.0610 
       5 O1         0.1636   -0.0286   -1.2014 O.3       1 <0>        -0.3878 
       6 C5        -0.5630    0.1129    0.0221 C.3       1 <0>         0.0487 
       7 C6         0.1042    1.1795    0.8892 C.3       1 <0>         0.1244 
       8 N1        -0.6426    1.3250    2.1468 N.am      1 <0>        -0.7216 
       9 C7        -0.5803    0.3705    3.0710 C.2       1 <0>         0.5161 
      10 O2         0.1020   -0.6336    2.8740 O.2       1 <0>        -0.5151 
      11 C8        -1.3474    0.5200    4.3630 C.3       1 <0>         0.0490 
      12 O3        -0.7540    1.5546    5.1518 O.3       1 <0>        -0.3194 
      13 C9        -1.3081    1.8336    6.3508 C.2       1 <0>         0.5417 
      14 O4        -2.2854    1.2105    6.7318 O.2       1 <0>        -0.5337 
      15 C10       -0.7299    2.8958    7.2036 C.2       1 <0>        -0.2559 
      16 C11        0.4589    3.7013    6.8453 C.2       1 <0>        -0.0791 
      17 C12        0.7814    4.5825    7.7950 C.2       1 <0>        -0.2585 
      18 S1        -0.3134    4.5201    9.1841 S.3       1 <0>         0.3028 
      19 C13       -1.2299    3.2231    8.4029 C.2       1 <0>         0.0893 
      20 N2        -2.3241    2.5924    8.9339 N.am      1 <0>        -0.6099 
      21 C14       -2.7849    2.9514   10.1287 C.2       1 <0>         0.5551 
      22 O5        -2.2285    3.8504   10.7574 O.2       1 <0>        -0.4939 
      23 C15       -3.9670    2.2692   10.7009 C.ar      1 <0>        -0.1466 
      24 C16       -4.4165    2.6767   11.9626 C.ar      1 <0>        -0.0772 
      25 C17       -5.4835    2.0205   12.5877 C.ar      1 <0>        -0.1241 
      26 C18       -6.1148    0.9367   11.9662 C.ar      1 <0>        -0.0446 
      27 C19       -5.7025    0.5611   10.6821 C.ar      1 <0>        -0.1261 
      28 C20       -4.6542    1.2388   10.0482 C.ar      1 <0>        -0.0460 
      29 C21       -7.2227    0.2029   12.6835 C.3       1 <0>        -0.0928 
      30 C22       -6.6287   -0.9428   13.4978 C.3       1 <0>        -0.1485 
      31 H1         0.7427   -0.6733   -6.0092 H         1 <0>         0.0567 
      32 H2         2.1915   -0.1392   -5.1298 H         1 <0>         0.0554 
      33 H3         1.1295    1.0579   -5.9025 H         1 <0>         0.0557 
      34 H4         0.7523    0.9978   -3.4628 H         1 <0>         0.0632 
      35 H5        -0.6914    0.4416   -4.3371 H         1 <0>         0.0635 
      36 H6        -0.0077   -1.9093   -3.9700 H         1 <0>         0.0711 
      37 H7         1.4359   -1.3530   -3.0958 H         1 <0>         0.0704 
      38 H8        -1.4385   -0.7316   -2.2984 H         1 <0>         0.0498 
      39 H9        -0.4186   -1.9791   -1.5486 H         1 <0>         0.0505 
      40 H10       -0.5668   -0.8359    0.5543 H         1 <0>         0.0584 
      41 H11       -1.5864    0.4114   -0.1955 H         1 <0>         0.0702 
      42 H12        0.1078    2.1291    0.3583 H         1 <0>         0.0872 
      43 H13        1.1275    0.8818    1.1081 H         1 <0>         0.0805 
      44 H14       -1.2032    2.1492    2.3097 H         1 <0>         0.4058 
      45 H15       -2.3810    0.7796    4.1439 H         1 <0>         0.1008 
      46 H16       -1.3172   -0.4177    4.9139 H         1 <0>         0.0999 
      47 H17        0.9839    3.5811    5.9092 H         1 <0>         0.1557 
      48 H18        1.6155    5.2623    7.7037 H         1 <0>         0.1929 
      49 H19       -2.7810    1.8544    8.4177 H         1 <0>         0.4317 
      50 H20       -3.9337    3.5030   12.4631 H         1 <0>         0.1287 
      51 H21       -5.8255    2.3477   13.5583 H         1 <0>         0.1326 
      52 H22       -6.2068   -0.2553   10.1866 H         1 <0>         0.1342 
      53 H23       -4.4196    0.9438    9.0362 H         1 <0>         0.1410 
      54 H24       -7.9245   -0.1957   11.9538 H         1 <0>         0.0777 
      55 H25       -7.7413    0.8905   13.3482 H         1 <0>         0.0771 
      56 H26       -5.9366   -0.5419   14.2353 H         1 <0>         0.0623 
      57 H27       -6.0984   -1.6222   12.8337 H         1 <0>         0.0572 
      58 H28       -7.4282   -1.4797   14.0039 H         1 <0>         0.0578 
@<TRIPOS>BOND
       1        1        2 1        
       2        1       31 1        
       3        1       32 1        
       4        1       33 1        
       5        2        3 1        
       6        2       34 1        
       7        2       35 1        
       8        3        4 1        
       9        3       36 1        
      10        3       37 1        
      11        4        5 1        
      12        4       38 1        
      13        4       39 1        
      14        5        6 1        
      15        6        7 1        
      16        6       40 1        
      17        6       41 1        
      18        7        8 1        
      19        7       42 1        
      20        7       43 1        
      21        8        9 am       
      22        8       44 1        
      23        9       10 2        
      24        9       11 1        
      25       11       12 1        
      26       11       45 1        
      27       11       46 1        
      28       12       13 1        
      29       13       14 2        
      30       13       15 1        
      31       15       19 2        
      32       15       16 1        
      33       16       17 2        
      34       16       47 1        
      35       17       18 1        
      36       17       48 1        
      37       18       19 1        
      38       19       20 1        
      39       20       21 am       
      40       20       49 1        
      41       21       22 2        
      42       21       23 1        
      43       23       28 ar       
      44       23       24 ar       
      45       24       25 ar       
      46       24       50 1        
      47       25       26 ar       
      48       25       51 1        
      49       26       27 ar       
      50       26       29 1        
      51       27       28 ar       
      52       27       52 1        
      53       28       53 1        
      54       29       30 1        
      55       29       54 1        
      56       29       55 1        
      57       30       56 1        
      58       30       57 1        
      59       30       58 1        

