#        1GCZ_R01_S0001_C0000_L00007_S0001_C0044_G0010_E0001.mol2
#        Tue Jun  6 09:56:59 2017
#        Descriptor:     30    11     7    14     9    12
#        Energy - RMSD - RMSD MassCentre:     -64.4411    999.9999    999.9999
#        Receptor:       1  Surface Point:     1  Conformer:     0
#        Ligand:         7  Surface Point:     1  Conformer:    44
#        BUDE Formal Charge: 0
#        ATOM Count: 51
#        Heavy ATOM Count: 28
@<TRIPOS>MOLECULE
ZINC61408927_1GCZ_R01_S0001_C0000_L00007_S0001_C0044_G0010_E0001
 51 52 0 0 0
SMALL
USER_CHARGES
@<TRIPOS>ATOM
       1 C1         2.7231    3.4526    5.6889 C.3       1 <0>        -0.1139 
       2 C2         2.2805    2.0515    5.3419 C.ar      1 <0>        -0.1278 
       3 C3         0.9370    1.8175    5.0254 C.ar      1 <0>        -0.0331 
       4 C4         0.4659    0.5238    4.7717 C.ar      1 <0>        -0.1443 
       5 C5         1.3608   -0.5466    4.8194 C.ar      1 <0>        -0.0449 
       6 C6         2.7144   -0.3165    5.0922 C.ar      1 <0>        -0.1321 
       7 C7         3.1817    0.9803    5.3367 C.ar      1 <0>         0.2027 
       8 N1         4.5608    1.1853    5.5785 N.am      1 <0>        -0.6834 
       9 C8         5.4298    0.2045    5.3512 C.2       1 <0>         0.7034 
      10 O1         5.0279   -0.8992    4.9237 O.2       1 <0>        -0.5648 
      11 N2         6.7258    0.3988    5.5790 N.am      1 <0>        -0.7401 
      12 C9         7.1966    1.6973    6.0817 C.3       1 <0>         0.1407 
      13 C10        8.7139    1.6551    6.2562 C.3       1 <0>        -0.0859 
      14 C11        9.3683    1.4371    4.9128 C.ar      1 <0>        -0.1215 
      15 C12        9.6294    0.1391    4.4580 C.ar      1 <0>        -0.0699 
      16 C13       10.2292   -0.0679    3.2100 C.ar      1 <0>        -0.1435 
      17 C14       10.5697    1.0224    2.4088 C.ar      1 <0>         0.1289 
      18 C15       10.3259    2.3242    2.8624 C.ar      1 <0>        -0.2084 
      19 C16        9.7288    2.5275    4.1124 C.ar      1 <0>        -0.0704 
      20 O2        11.1350    0.8173    1.1780 O.3       1 <0>        -0.2897 
      21 C17       12.1952    1.6877    0.7733 C.3       1 <0>         0.0392 
      22 C18       12.6724    1.2918   -0.6035 C.2       1 <0>         0.5189 
      23 O3        12.3776    1.9819   -1.5782 O.2       1 <0>        -0.5164 
      24 N3        13.4112    0.1973   -0.7615 N.am      1 <0>        -0.8500 
      25 C19       -0.9612    0.2843    4.4613 C.2       1 <0>         0.5100 
      26 O4        -1.7265    1.2014    4.4249 O.2       1 <0>        -0.5069 
      27 O5        -1.3976   -0.9701    4.2193 O.3       1 <0>        -0.3499 
      28 C20       -2.7848   -1.1525    3.9238 C.3       1 <0>         0.0344 
      29 H1         3.7106    3.6345    5.2700 H         1 <0>         0.0741 
      30 H2         2.7617    3.5627    6.7707 H         1 <0>         0.0756 
      31 H3         2.0158    4.1686    5.2758 H         1 <0>         0.0654 
      32 H4         0.2459    2.6456    4.9713 H         1 <0>         0.1419 
      33 H5         1.0137   -1.5546    4.6470 H         1 <0>         0.1420 
      34 H6         3.4104   -1.1421    5.1124 H         1 <0>         0.1513 
      35 H7         4.8854    2.0771    5.9239 H         1 <0>         0.4099 
      36 H8         7.3856   -0.3461    5.4064 H         1 <0>         0.3991 
      37 H9         6.7264    1.9065    7.0404 H         1 <0>         0.0724 
      38 H10        6.9342    2.4776    5.3704 H         1 <0>         0.0717 
      39 H11        8.9788    0.8396    6.9259 H         1 <0>         0.0798 
      40 H12        9.0562    2.5977    6.6782 H         1 <0>         0.0807 
      41 H13        9.3723   -0.7149    5.0670 H         1 <0>         0.1319 
      42 H14       10.4305   -1.0700    2.8611 H         1 <0>         0.1348 
      43 H15       10.6047    3.1651    2.2447 H         1 <0>         0.1287 
      44 H16        9.5513    3.5371    4.4524 H         1 <0>         0.1269 
      45 H17       13.0185    1.6082    1.4800 H         1 <0>         0.0958 
      46 H18       11.8329    2.7135    0.7513 H         1 <0>         0.0955 
      47 H19       13.6527   -0.3686    0.0394 H         1 <0>         0.4037 
      48 H20       13.7304   -0.0674   -1.6825 H         1 <0>         0.4105 
      49 H21       -3.0394   -0.5965    3.0238 H         1 <0>         0.0617 
      50 H22       -2.9856   -2.2101    3.7665 H         1 <0>         0.0616 
      51 H23       -3.3832   -0.7891    4.7566 H         1 <0>         0.1040 
@<TRIPOS>BOND
       1        1        2 1        
       2        1       29 1        
       3        1       30 1        
       4        1       31 1        
       5        2        7 ar       
       6        2        3 ar       
       7        3        4 ar       
       8        3       32 1        
       9        4        5 ar       
      10        4       25 1        
      11        5        6 ar       
      12        5       33 1        
      13        6        7 ar       
      14        6       34 1        
      15        7        8 1        
      16        8        9 am       
      17        8       35 1        
      18        9       10 2        
      19        9       11 am       
      20       11       12 1        
      21       11       36 1        
      22       12       13 1        
      23       12       37 1        
      24       12       38 1        
      25       13       14 1        
      26       13       39 1        
      27       13       40 1        
      28       14       19 ar       
      29       14       15 ar       
      30       15       16 ar       
      31       15       41 1        
      32       16       17 ar       
      33       16       42 1        
      34       17       18 ar       
      35       17       20 1        
      36       18       19 ar       
      37       18       43 1        
      38       19       44 1        
      39       20       21 1        
      40       21       22 1        
      41       21       45 1        
      42       21       46 1        
      43       22       23 2        
      44       22       24 am       
      45       24       47 1        
      46       24       48 1        
      47       25       26 2        
      48       25       27 1        
      49       27       28 1        
      50       28       49 1        
      51       28       50 1        
      52       28       51 1        

