#        1GCZ_R01_S0001_C0000_L00007_S0001_C0044_G0010_E0001.mol2
#        Tue Jun  6 14:09:13 2017
#        Descriptor:     10     5    36     9     3    15
#        Energy - RMSD - RMSD MassCentre:     -58.5096    999.9999    999.9999
#        Receptor:       1  Surface Point:     1  Conformer:     0
#        Ligand:         7  Surface Point:     1  Conformer:    44
#        BUDE Formal Charge: 0
#        ATOM Count: 51
#        Heavy ATOM Count: 28
@<TRIPOS>MOLECULE
ZINC61408927_1GCZ_R01_S0001_C0000_L00007_S0001_C0044_G0010_E0001
 51 52 0 0 0
SMALL
USER_CHARGES
@<TRIPOS>ATOM
       1 C1        -0.4834   -8.1038    9.7878 C.3       1 <0>        -0.1139 
       2 C2         0.7248   -8.5567    9.0038 C.ar      1 <0>        -0.1278 
       3 C3         0.9107   -9.9232    8.7630 C.ar      1 <0>        -0.0331 
       4 C4         2.0539  -10.3956    8.1072 C.ar      1 <0>        -0.1443 
       5 C5         3.0143   -9.4807    7.6722 C.ar      1 <0>        -0.0449 
       6 C6         2.8159   -8.1091    7.8701 C.ar      1 <0>        -0.1321 
       7 C7         1.6667   -7.6417    8.5189 C.ar      1 <0>         0.2027 
       8 N1         1.4790   -6.2480    8.6764 N.am      1 <0>        -0.6834 
       9 C8         2.2591   -5.3927    8.0218 C.2       1 <0>         0.7034 
      10 O1         3.1589   -5.8204    7.2668 O.2       1 <0>        -0.5648 
      11 N2         2.0815   -4.0830    8.1709 N.am      1 <0>        -0.7401 
      12 C9         1.0229   -3.5818    9.0591 C.3       1 <0>         0.1407 
      13 C10        1.0331   -2.0540    9.0506 C.3       1 <0>        -0.0859 
      14 C11        0.7161   -1.5572    7.6603 C.ar      1 <0>        -0.1215 
      15 C12        1.7471   -1.3260    6.7419 C.ar      1 <0>        -0.0699 
      16 C13        1.4572   -0.8723    5.4495 C.ar      1 <0>        -0.1435 
      17 C14        0.1340   -0.6491    5.0675 C.ar      1 <0>         0.1289 
      18 C15       -0.9020   -0.8633    5.9844 C.ar      1 <0>        -0.2084 
      19 C16       -0.6082   -1.3139    7.2770 C.ar      1 <0>        -0.0704 
      20 O2        -0.1494   -0.2278    3.7953 O.3       1 <0>        -0.2897 
      21 C17       -1.1692    0.7607    3.6275 C.3       1 <0>         0.0392 
      22 C18       -1.3218    1.0812    2.1599 C.2       1 <0>         0.5189 
      23 O3        -2.2958    0.6611    1.5370 O.2       1 <0>        -0.5164 
      24 N3        -0.4030    1.8175    1.5415 N.am      1 <0>        -0.8500 
      25 C19        2.2520  -11.8443    7.8786 C.2       1 <0>         0.5100 
      26 O4         1.4306  -12.6262    8.2553 O.2       1 <0>        -0.5069 
      27 O5         3.3607  -12.2816    7.2444 O.3       1 <0>        -0.3499 
      28 C20        3.5086  -13.6901    7.0461 C.3       1 <0>         0.0344 
      29 H1        -0.8624   -7.1758    9.3649 H         1 <0>         0.0741 
      30 H2        -0.2012   -7.9410   10.8260 H         1 <0>         0.0756 
      31 H3        -1.2557   -8.8683    9.7368 H         1 <0>         0.0654 
      32 H4         0.1613  -10.6318    9.0834 H         1 <0>         0.1419 
      33 H5         3.9128   -9.8259    7.1827 H         1 <0>         0.1420 
      34 H6         3.5504   -7.3997    7.5187 H         1 <0>         0.1513 
      35 H7         0.7520   -5.9025    9.2865 H         1 <0>         0.4099 
      36 H8         2.6740   -3.4335    7.6737 H         1 <0>         0.3991 
      37 H9         1.1994   -3.9407   10.0710 H         1 <0>         0.0724 
      38 H10        0.0571   -3.9408    8.7096 H         1 <0>         0.0717 
      39 H11        2.0166   -1.6968    9.3485 H         1 <0>         0.0798 
      40 H12        0.2851   -1.6831    9.7482 H         1 <0>         0.0807 
      41 H13        2.7763   -1.4934    7.0229 H         1 <0>         0.1319 
      42 H14        2.2540   -0.6939    4.7426 H         1 <0>         0.1348 
      43 H15       -1.9235   -0.6751    5.6884 H         1 <0>         0.1287 
      44 H16       -1.4166   -1.4700    7.9760 H         1 <0>         0.1269 
      45 H17       -0.8920    1.6624    4.1694 H         1 <0>         0.0958 
      46 H18       -2.1111    0.3786    4.0158 H         1 <0>         0.0955 
      47 H19        0.3963    2.1619    2.0537 H         1 <0>         0.4037 
      48 H20       -0.5051    2.0319    0.5598 H         1 <0>         0.4105 
      49 H21        2.6839  -14.0589    6.4398 H         1 <0>         0.0617 
      50 H22        4.4500  -13.8873    6.5376 H         1 <0>         0.0616 
      51 H23        3.5041  -14.1939    8.0104 H         1 <0>         0.1040 
@<TRIPOS>BOND
       1        1        2 1        
       2        1       29 1        
       3        1       30 1        
       4        1       31 1        
       5        2        7 ar       
       6        2        3 ar       
       7        3        4 ar       
       8        3       32 1        
       9        4        5 ar       
      10        4       25 1        
      11        5        6 ar       
      12        5       33 1        
      13        6        7 ar       
      14        6       34 1        
      15        7        8 1        
      16        8        9 am       
      17        8       35 1        
      18        9       10 2        
      19        9       11 am       
      20       11       12 1        
      21       11       36 1        
      22       12       13 1        
      23       12       37 1        
      24       12       38 1        
      25       13       14 1        
      26       13       39 1        
      27       13       40 1        
      28       14       19 ar       
      29       14       15 ar       
      30       15       16 ar       
      31       15       41 1        
      32       16       17 ar       
      33       16       42 1        
      34       17       18 ar       
      35       17       20 1        
      36       18       19 ar       
      37       18       43 1        
      38       19       44 1        
      39       20       21 1        
      40       21       22 1        
      41       21       45 1        
      42       21       46 1        
      43       22       23 2        
      44       22       24 am       
      45       24       47 1        
      46       24       48 1        
      47       25       26 2        
      48       25       27 1        
      49       27       28 1        
      50       28       49 1        
      51       28       50 1        
      52       28       51 1        

