#        1GCZ_R01_S0001_C0000_L00007_S0001_C0046_G0010_E0001.mol2
#        Tue Jun  6 09:57:01 2017
#        Descriptor:     10    31    29    15     8    13
#        Energy - RMSD - RMSD MassCentre:     -62.2771    999.9999    999.9999
#        Receptor:       1  Surface Point:     1  Conformer:     0
#        Ligand:         7  Surface Point:     1  Conformer:    46
#        BUDE Formal Charge: 0
#        ATOM Count: 51
#        Heavy ATOM Count: 28
@<TRIPOS>MOLECULE
ZINC61408927_1GCZ_R01_S0001_C0000_L00007_S0001_C0046_G0010_E0001
 51 52 0 0 0
SMALL
USER_CHARGES
@<TRIPOS>ATOM
       1 C1         4.4068   -2.1287    8.0343 C.3       1 <0>        -0.1139 
       2 C2         3.6453   -1.3609    6.9806 C.ar      1 <0>        -0.1278 
       3 C3         2.2691   -1.5751    6.8394 C.ar      1 <0>        -0.0331 
       4 C4         1.5364   -0.9433    5.8274 C.ar      1 <0>        -0.1443 
       5 C5         2.1926   -0.0711    4.9571 C.ar      1 <0>        -0.0449 
       6 C6         3.5599    0.1825    5.1181 C.ar      1 <0>        -0.1321 
       7 C7         4.2859   -0.4455    6.1372 C.ar      1 <0>         0.2027 
       8 N1         5.6598   -0.1453    6.2947 N.am      1 <0>        -0.6834 
       9 C8         6.1966    0.8804    5.6401 C.2       1 <0>         0.7034 
      10 O1         5.4870    1.5796    4.8850 O.2       1 <0>        -0.5648 
      11 N2         7.4881    1.1613    5.7892 N.am      1 <0>        -0.7401 
      12 C9         8.3211    0.3380    6.6774 C.3       1 <0>         0.1407 
      13 C10        9.7533    0.8702    6.6688 C.3       1 <0>        -0.0859 
      14 C11       10.3286    0.7422    5.2785 C.ar      1 <0>        -0.1215 
      15 C12       11.0169   -0.4179    4.9042 C.ar      1 <0>        -0.0699 
      16 C13       11.5455   -0.5438    3.6139 C.ar      1 <0>        -0.1435 
      17 C14       11.3871    0.4894    2.6899 C.ar      1 <0>         0.1289 
      18 C15       10.7132    1.6592    3.0606 C.ar      1 <0>        -0.2084 
      19 C16       10.1887    1.7830    4.3527 C.ar      1 <0>        -0.0704 
      20 O2        11.8845    0.3549    1.4205 O.3       1 <0>        -0.2897 
      21 C17       12.5058    1.4941    0.8194 C.3       1 <0>         0.0392 
      22 C18       13.6950    1.9145    1.6498 C.2       1 <0>         0.5189 
      23 O3        13.6281    2.9213    2.3533 O.2       1 <0>        -0.5164 
      24 N3        14.8137    1.1960    1.6200 N.am      1 <0>        -0.8500 
      25 C19        0.0863   -1.1948    5.6720 C.2       1 <0>         0.5100 
      26 O4        -0.5248   -0.6476    4.8030 O.2       1 <0>        -0.5069 
      27 O5        -0.5453   -2.0421    6.5119 O.3       1 <0>        -0.3499 
      28 C20       -1.9469   -2.2536    6.3228 C.3       1 <0>         0.0344 
      29 H1         5.1589   -1.4817    8.4809 H         1 <0>         0.0741 
      30 H2         4.8926   -2.9877    7.5760 H         1 <0>         0.0756 
      31 H3         3.7170   -2.4690    8.8037 H         1 <0>         0.0654 
      32 H4         1.7557   -2.2363    7.5217 H         1 <0>         0.1419 
      33 H5         1.6499    0.4105    4.1572 H         1 <0>         0.1420 
      34 H6         4.0645    0.8702    4.4558 H         1 <0>         0.1513 
      35 H7         6.2330   -0.7103    6.9047 H         1 <0>         0.4099 
      36 H8         7.8958    1.9402    5.2920 H         1 <0>         0.3991 
      37 H9         8.3143   -0.6924    6.3279 H         1 <0>         0.0724 
      38 H10        7.9235    0.3811    7.6892 H         1 <0>         0.0717 
      39 H11       10.3577    0.2943    7.3665 H         1 <0>         0.0798 
      40 H12        9.7525    1.9167    6.9668 H         1 <0>         0.0807 
      41 H13       11.1484   -1.2261    5.6084 H         1 <0>         0.1319 
      42 H14       12.0768   -1.4393    3.3272 H         1 <0>         0.1348 
      43 H15       10.6060    2.4620    2.3462 H         1 <0>         0.1287 
      44 H16        9.6758    2.6930    4.6272 H         1 <0>         0.1269 
      45 H17       11.7904    2.3122    0.7690 H         1 <0>         0.0958 
      46 H18       12.8364    1.2382   -0.1851 H         1 <0>         0.0955 
      47 H19       14.8674    0.3695    1.0419 H         1 <0>         0.4037 
      48 H20       15.6090    1.4771    2.1753 H         1 <0>         0.4105 
      49 H21       -2.1198   -2.6710    5.3330 H         1 <0>         0.0617 
      50 H22       -2.3138   -2.9454    7.0780 H         1 <0>         0.0616 
      51 H23       -2.4717   -1.3049    6.4136 H         1 <0>         0.1040 
@<TRIPOS>BOND
       1        1        2 1        
       2        1       29 1        
       3        1       30 1        
       4        1       31 1        
       5        2        7 ar       
       6        2        3 ar       
       7        3        4 ar       
       8        3       32 1        
       9        4        5 ar       
      10        4       25 1        
      11        5        6 ar       
      12        5       33 1        
      13        6        7 ar       
      14        6       34 1        
      15        7        8 1        
      16        8        9 am       
      17        8       35 1        
      18        9       10 2        
      19        9       11 am       
      20       11       12 1        
      21       11       36 1        
      22       12       13 1        
      23       12       37 1        
      24       12       38 1        
      25       13       14 1        
      26       13       39 1        
      27       13       40 1        
      28       14       19 ar       
      29       14       15 ar       
      30       15       16 ar       
      31       15       41 1        
      32       16       17 ar       
      33       16       42 1        
      34       17       18 ar       
      35       17       20 1        
      36       18       19 ar       
      37       18       43 1        
      38       19       44 1        
      39       20       21 1        
      40       21       22 1        
      41       21       45 1        
      42       21       46 1        
      43       22       23 2        
      44       22       24 am       
      45       24       47 1        
      46       24       48 1        
      47       25       26 2        
      48       25       27 1        
      49       27       28 1        
      50       28       49 1        
      51       28       50 1        
      52       28       51 1        

