#        1GCZ_R01_S0001_C0000_L00003_S0001_C0006_G0010_E0001.mol2
#        Tue Jun  6 09:54:40 2017
#        Descriptor:      3     6    36    10     6    12
#        Energy - RMSD - RMSD MassCentre:     -67.5106    999.9999    999.9999
#        Receptor:       1  Surface Point:     1  Conformer:     0
#        Ligand:         3  Surface Point:     1  Conformer:     6
#        BUDE Formal Charge: 0
#        ATOM Count: 58
#        Heavy ATOM Count: 30
@<TRIPOS>MOLECULE
ZINC61580633_1GCZ_R01_S0001_C0000_L00003_S0001_C0006_G0010_E0001
 58 59 0 0 0
SMALL
USER_CHARGES
@<TRIPOS>ATOM
       1 C1        -0.6960    0.8915   -2.3657 C.3       1 <0>        -0.1532 
       2 C2        -0.8162    0.1851   -1.0186 C.3       1 <0>        -0.1224 
       3 C3         0.5358    0.2135   -0.3072 C.3       1 <0>        -0.1198 
       4 C4         0.4155   -0.4939    1.0419 C.3       1 <0>         0.0610 
       5 O1        -0.5088    0.2159    1.8705 O.3       1 <0>        -0.3878 
       6 C5        -0.6628   -0.4022    3.1509 C.3       1 <0>         0.0487 
       7 C6        -1.6592    0.4002    3.9863 C.3       1 <0>         0.1244 
       8 N1        -1.8174   -0.2350    5.3024 N.am      1 <0>        -0.7216 
       9 C7        -0.8354   -0.1646    6.1966 C.2       1 <0>         0.5161 
      10 O2         0.2049    0.4317    5.9231 O.2       1 <0>        -0.5151 
      11 C8        -0.9978   -0.8172    7.5487 C.3       1 <0>         0.0490 
      12 O3        -0.9822   -2.2389    7.3958 O.3       1 <0>        -0.3194 
      13 C9         0.1433   -2.8123    6.9195 C.2       1 <0>         0.5417 
      14 O4         1.1072   -2.1210    6.6340 O.2       1 <0>        -0.5337 
      15 C10        0.2081   -4.2802    6.7436 C.2       1 <0>        -0.2559 
      16 C11       -0.8950   -5.2111    7.0705 C.2       1 <0>        -0.0791 
      17 C12       -0.5737   -6.4846    6.8314 C.2       1 <0>        -0.2585 
      18 S1         1.0669   -6.6663    6.1928 S.3       1 <0>         0.3028 
      19 C13        1.2929   -4.9129    6.2763 C.2       1 <0>         0.0893 
      20 N2         2.4337   -4.2413    5.9233 N.am      1 <0>        -0.6099 
      21 C14        3.4863   -4.9122    5.4641 C.2       1 <0>         0.5551 
      22 O5         3.4355   -6.1364    5.3561 O.2       1 <0>        -0.4939 
      23 C15        4.7178   -4.1852    5.0832 C.ar      1 <0>        -0.1466 
      24 C16        5.8029   -4.9312    4.6075 C.ar      1 <0>        -0.0772 
      25 C17        7.0188   -4.3087    4.3013 C.ar      1 <0>        -0.1241 
      26 C18        7.1755   -2.9287    4.4749 C.ar      1 <0>        -0.0446 
      27 C19        6.0764   -2.1727    4.8995 C.ar      1 <0>        -0.1261 
      28 C20        4.8533   -2.7950    5.1769 C.ar      1 <0>        -0.0460 
      29 C21        8.5136   -2.2856    4.1981 C.3       1 <0>        -0.0928 
      30 C22        9.3481   -2.2799    5.4755 C.3       1 <0>        -0.1485 
      31 H1         0.0370    0.3745   -2.9815 H         1 <0>         0.0567 
      32 H2        -0.3775    1.9198   -2.2082 H         1 <0>         0.0554 
      33 H3        -1.6619    0.8831   -2.8663 H         1 <0>         0.0557 
      34 H4        -1.5581    0.6938   -0.4064 H         1 <0>         0.0632 
      35 H5        -1.1210   -0.8474   -1.1755 H         1 <0>         0.0635 
      36 H6         1.2785   -0.2955   -0.9178 H         1 <0>         0.0711 
      37 H7         0.8413    1.2457   -0.1487 H         1 <0>         0.0704 
      38 H8         0.0581   -1.5100    0.8888 H         1 <0>         0.0498 
      39 H9         1.3894   -0.5203    1.5263 H         1 <0>         0.0505 
      40 H10        0.2985   -0.4277    3.6600 H         1 <0>         0.0584 
      41 H11       -1.0327   -1.4172    3.0223 H         1 <0>         0.0702 
      42 H12       -2.6212    0.4257    3.4786 H         1 <0>         0.0872 
      43 H13       -1.2899    1.4152    4.1162 H         1 <0>         0.0805 
      44 H14       -2.6712   -0.7250    5.5280 H         1 <0>         0.4058 
      45 H15       -0.1801   -0.5141    8.1990 H         1 <0>         0.1008 
      46 H16       -1.9446   -0.5109    7.9884 H         1 <0>         0.0999 
      47 H17       -1.8493   -4.8744    7.4477 H         1 <0>         0.1557 
      48 H18       -1.2577   -7.3027    7.0019 H         1 <0>         0.1929 
      49 H19        2.4754   -3.2361    6.0119 H         1 <0>         0.4317 
      50 H20        5.7048   -5.9990    4.4790 H         1 <0>         0.1287 
      51 H21        7.8469   -4.8936    3.9291 H         1 <0>         0.1326 
      52 H22        6.1842   -1.1034    5.0061 H         1 <0>         0.1342 
      53 H23        4.0256   -2.1545    5.4433 H         1 <0>         0.1410 
      54 H24        8.3606   -1.2631    3.8594 H         1 <0>         0.0777 
      55 H25        9.0337   -2.8498    3.4268 H         1 <0>         0.0771 
      56 H26        9.5109   -3.3035    5.8062 H         1 <0>         0.0623 
      57 H27        8.8204   -1.7274    6.2503 H         1 <0>         0.0572 
      58 H28       10.3069   -1.8046    5.2794 H         1 <0>         0.0578 
@<TRIPOS>BOND
       1        1        2 1        
       2        1       31 1        
       3        1       32 1        
       4        1       33 1        
       5        2        3 1        
       6        2       34 1        
       7        2       35 1        
       8        3        4 1        
       9        3       36 1        
      10        3       37 1        
      11        4        5 1        
      12        4       38 1        
      13        4       39 1        
      14        5        6 1        
      15        6        7 1        
      16        6       40 1        
      17        6       41 1        
      18        7        8 1        
      19        7       42 1        
      20        7       43 1        
      21        8        9 am       
      22        8       44 1        
      23        9       10 2        
      24        9       11 1        
      25       11       12 1        
      26       11       45 1        
      27       11       46 1        
      28       12       13 1        
      29       13       14 2        
      30       13       15 1        
      31       15       19 2        
      32       15       16 1        
      33       16       17 2        
      34       16       47 1        
      35       17       18 1        
      36       17       48 1        
      37       18       19 1        
      38       19       20 1        
      39       20       21 am       
      40       20       49 1        
      41       21       22 2        
      42       21       23 1        
      43       23       28 ar       
      44       23       24 ar       
      45       24       25 ar       
      46       24       50 1        
      47       25       26 ar       
      48       25       51 1        
      49       26       27 ar       
      50       26       29 1        
      51       27       28 ar       
      52       27       52 1        
      53       28       53 1        
      54       29       30 1        
      55       29       54 1        
      56       29       55 1        
      57       30       56 1        
      58       30       57 1        
      59       30       58 1        

