#        1GCZ_R01_S0001_C0000_L00007_S0001_C0048_G0010_E0001.mol2
#        Tue Jun  6 14:09:21 2017
#        Descriptor:     12     2    28    15     9    13
#        Energy - RMSD - RMSD MassCentre:     -67.7162    999.9999    999.9999
#        Receptor:       1  Surface Point:     1  Conformer:     0
#        Ligand:         7  Surface Point:     1  Conformer:    48
#        BUDE Formal Charge: 0
#        ATOM Count: 51
#        Heavy ATOM Count: 28
@<TRIPOS>MOLECULE
ZINC61408927_1GCZ_R01_S0001_C0000_L00007_S0001_C0048_G0010_E0001
 51 52 0 0 0
SMALL
USER_CHARGES
@<TRIPOS>ATOM
       1 C1         2.3166    2.6013    8.0810 C.3       1 <0>        -0.1139 
       2 C2         2.4967    1.9448    6.7334 C.ar      1 <0>        -0.1278 
       3 C3         1.3660    1.5481    6.0096 C.ar      1 <0>        -0.0331 
       4 C4         1.4857    0.8679    4.7918 C.ar      1 <0>        -0.1443 
       5 C5         2.7588    0.5986    4.2864 C.ar      1 <0>        -0.0449 
       6 C6         3.8945    1.0299    4.9820 C.ar      1 <0>        -0.1321 
       7 C7         3.7687    1.7173    6.1951 C.ar      1 <0>         0.2027 
       8 N1         4.9339    2.1683    6.8595 N.am      1 <0>        -0.6834 
       9 C8         6.1079    2.1445    6.2350 C.2       1 <0>         0.7034 
      10 O1         6.1821    1.7234    5.0604 O.2       1 <0>        -0.5648 
      11 N2         7.2023    2.5687    6.8608 N.am      1 <0>        -0.7401 
      12 C9         8.4998    2.5424    6.1705 C.3       1 <0>         0.1407 
      13 C10        8.8435    1.1035    5.7887 C.3       1 <0>        -0.0859 
      14 C11       10.1763    1.0765    5.0797 C.ar      1 <0>        -0.1215 
      15 C12       10.2369    1.2022    3.6867 C.ar      1 <0>        -0.0699 
      16 C13       11.4711    1.1850    3.0259 C.ar      1 <0>        -0.1435 
      17 C14       12.6522    1.0437    3.7550 C.ar      1 <0>         0.1289 
      18 C15       12.6000    0.9022    5.1467 C.ar      1 <0>        -0.2084 
      19 C16       11.3638    0.9167    5.8039 C.ar      1 <0>        -0.0704 
      20 O2        13.8603    1.0507    3.1090 O.3       1 <0>        -0.2897 
      21 C17       14.8617    0.1297    3.5495 C.3       1 <0>         0.0392 
      22 C18       14.3527   -1.2824    3.3857 C.2       1 <0>         0.5189 
      23 O3        14.0054   -1.9290    4.3728 O.2       1 <0>        -0.5164 
      24 N3        14.2800   -1.8263    2.1741 N.am      1 <0>        -0.8500 
      25 C19        0.2839    0.4320    4.0460 C.2       1 <0>         0.5100 
      26 O4         0.4032   -0.1476    3.0078 O.2       1 <0>        -0.5069 
      27 O5        -0.9461    0.6896    4.5388 O.3       1 <0>        -0.3499 
      28 C20       -2.0774    0.2491    3.7829 C.3       1 <0>         0.0344 
      29 H1         3.0567    3.3896    8.2014 H         1 <0>         0.0741 
      30 H2         2.4462    1.8587    8.8657 H         1 <0>         0.0756 
      31 H3         1.3179    3.0277    8.1456 H         1 <0>         0.0654 
      32 H4         0.3798    1.7700    6.3898 H         1 <0>         0.1419 
      33 H5         2.8731    0.0571    3.3591 H         1 <0>         0.1420 
      34 H6         4.8793    0.8369    4.5831 H         1 <0>         0.1513 
      35 H7         4.8740    2.5085    7.8085 H         1 <0>         0.4099 
      36 H8         7.1412    2.9087    7.8098 H         1 <0>         0.3991 
      37 H9         9.2694    2.9367    6.8310 H         1 <0>         0.0724 
      38 H10        8.4444    3.1535    5.2721 H         1 <0>         0.0717 
      39 H11        8.0730    0.7101    5.1289 H         1 <0>         0.0798 
      40 H12        8.8980    0.4935    6.6880 H         1 <0>         0.0807 
      41 H13        9.3313    1.3115    3.1085 H         1 <0>         0.1319 
      42 H14       11.5155    1.2815    1.9512 H         1 <0>         0.1348 
      43 H15       13.5162    0.7785    5.7049 H         1 <0>         0.1287 
      44 H16       11.3375    0.8012    6.8774 H         1 <0>         0.1269 
      45 H17       15.0881    0.3150    4.5974 H         1 <0>         0.0958 
      46 H18       15.7626    0.2625    2.9541 H         1 <0>         0.0955 
      47 H19       13.9395   -2.7708    2.0645 H         1 <0>         0.4037 
      48 H20       14.5655   -1.2944    1.3643 H         1 <0>         0.4105 
      49 H21       -2.0454   -0.8336    3.6809 H         1 <0>         0.0617 
      50 H22       -2.9914    0.5387    4.2970 H         1 <0>         0.0616 
      51 H23       -2.0545    0.7077    2.7966 H         1 <0>         0.1040 
@<TRIPOS>BOND
       1        1        2 1        
       2        1       29 1        
       3        1       30 1        
       4        1       31 1        
       5        2        7 ar       
       6        2        3 ar       
       7        3        4 ar       
       8        3       32 1        
       9        4        5 ar       
      10        4       25 1        
      11        5        6 ar       
      12        5       33 1        
      13        6        7 ar       
      14        6       34 1        
      15        7        8 1        
      16        8        9 am       
      17        8       35 1        
      18        9       10 2        
      19        9       11 am       
      20       11       12 1        
      21       11       36 1        
      22       12       13 1        
      23       12       37 1        
      24       12       38 1        
      25       13       14 1        
      26       13       39 1        
      27       13       40 1        
      28       14       19 ar       
      29       14       15 ar       
      30       15       16 ar       
      31       15       41 1        
      32       16       17 ar       
      33       16       42 1        
      34       17       18 ar       
      35       17       20 1        
      36       18       19 ar       
      37       18       43 1        
      38       19       44 1        
      39       20       21 1        
      40       21       22 1        
      41       21       45 1        
      42       21       46 1        
      43       22       23 2        
      44       22       24 am       
      45       24       47 1        
      46       24       48 1        
      47       25       26 2        
      48       25       27 1        
      49       27       28 1        
      50       28       49 1        
      51       28       50 1        
      52       28       51 1        

