#        1GCZ_R01_S0001_C0000_L00007_S0001_C0049_G0010_E0001.mol2
#        Tue Jun  6 09:57:04 2017
#        Descriptor:     35    19    31     7     7    14
#        Energy - RMSD - RMSD MassCentre:     -56.7302    999.9999    999.9999
#        Receptor:       1  Surface Point:     1  Conformer:     0
#        Ligand:         7  Surface Point:     1  Conformer:    49
#        BUDE Formal Charge: 0
#        ATOM Count: 51
#        Heavy ATOM Count: 28
@<TRIPOS>MOLECULE
ZINC61408927_1GCZ_R01_S0001_C0000_L00007_S0001_C0049_G0010_E0001
 51 52 0 0 0
SMALL
USER_CHARGES
@<TRIPOS>ATOM
       1 C1         1.2328    2.0020    3.8759 C.3       1 <0>        -0.1139 
       2 C2         0.3131    1.2493    2.9447 C.ar      1 <0>        -0.1278 
       3 C3         0.6530    1.1368    1.5913 C.ar      1 <0>        -0.0331 
       4 C4        -0.2051    0.5145    0.6768 C.ar      1 <0>        -0.1443 
       5 C5        -1.4128   -0.0175    1.1322 C.ar      1 <0>        -0.0449 
       6 C6        -1.7409    0.0520    2.4913 C.ar      1 <0>        -0.1321 
       7 C7        -0.8751    0.6679    3.4028 C.ar      1 <0>         0.2027 
       8 N1        -1.2193    0.6949    4.7751 N.am      1 <0>        -0.6834 
       9 C8        -2.2274   -0.0477    5.2235 C.2       1 <0>         0.7034 
      10 O1        -2.8712   -0.7701    4.4322 O.2       1 <0>        -0.5648 
      11 N2        -2.5498   -0.0213    6.5137 N.am      1 <0>        -0.7401 
      12 C9        -1.7917    0.8287    7.4429 C.3       1 <0>         0.1407 
      13 C10       -2.3613    0.6752    8.8523 C.3       1 <0>        -0.0859 
      14 C11       -2.1841   -0.7519    9.3132 C.ar      1 <0>        -0.1215 
      15 C12       -3.1838   -1.7010    9.0694 C.ar      1 <0>        -0.0699 
      16 C13       -3.0205   -3.0268    9.4885 C.ar      1 <0>        -0.1435 
      17 C14       -1.8552   -3.4114   10.1523 C.ar      1 <0>         0.1289 
      18 C15       -0.8569   -2.4654   10.4136 C.ar      1 <0>        -0.2084 
      19 C16       -1.0250   -1.1397    9.9958 C.ar      1 <0>        -0.0704 
      20 O2        -1.6869   -4.7142   10.5407 O.3       1 <0>        -0.2897 
      21 C17       -1.0943   -4.9621   11.8184 C.3       1 <0>         0.0392 
      22 C18       -1.0015   -6.4515   12.0489 C.2       1 <0>         0.5189 
      23 O3         0.0867   -7.0193   11.9682 O.2       1 <0>        -0.5164 
      24 N3        -2.0964   -7.1485   12.3391 N.am      1 <0>        -0.8500 
      25 C19        0.1530    0.4217   -0.7562 C.2       1 <0>         0.5100 
      26 O4        -0.5906   -0.1128   -1.5240 O.2       1 <0>        -0.5069 
      27 O5         1.3193    0.9408   -1.1950 O.3       1 <0>        -0.3499 
      28 C20        1.6221    0.8272   -2.5881 C.3       1 <0>         0.0344 
      29 H1         1.2642    1.4978    4.8395 H         1 <0>         0.0741 
      30 H2         0.8623    3.0164    4.0089 H         1 <0>         0.0756 
      31 H3         2.2332    2.0335    3.4496 H         1 <0>         0.0654 
      32 H4         1.5942    1.5325    1.2393 H         1 <0>         0.1419 
      33 H5        -2.0981   -0.4834    0.4397 H         1 <0>         0.1420 
      34 H6        -2.6672   -0.3745    2.8470 H         1 <0>         0.1513 
      35 H7        -0.6992    1.2786    5.4145 H         1 <0>         0.4099 
      36 H8        -3.3153   -0.5852    6.8542 H         1 <0>         0.3991 
      37 H9        -1.8713    1.8678    7.1301 H         1 <0>         0.0724 
      38 H10       -0.7464    0.5271    7.4386 H         1 <0>         0.0717 
      39 H11       -3.4200    0.9254    8.8442 H         1 <0>         0.0798 
      40 H12       -1.8351    1.3439    9.5304 H         1 <0>         0.0807 
      41 H13       -4.0918   -1.4184    8.5575 H         1 <0>         0.1319 
      42 H14       -3.7933   -3.7575    9.3000 H         1 <0>         0.1348 
      43 H15        0.0369   -2.7650   10.9406 H         1 <0>         0.1287 
      44 H16       -0.2494   -0.4189   10.2086 H         1 <0>         0.1269 
      45 H17       -1.7080   -4.5117   12.5956 H         1 <0>         0.0958 
      46 H18       -0.0971   -4.5275   11.8454 H         1 <0>         0.0955 
      47 H19       -2.9893   -6.6813   12.4051 H         1 <0>         0.4037 
      48 H20       -2.0342   -8.1448   12.4932 H         1 <0>         0.4105 
      49 H21        0.8589    1.3422   -3.1676 H         1 <0>         0.0617 
      50 H22        2.5930    1.2766   -2.7853 H         1 <0>         0.0616 
      51 H23        1.6444   -0.2236   -2.8691 H         1 <0>         0.1040 
@<TRIPOS>BOND
       1        1        2 1        
       2        1       29 1        
       3        1       30 1        
       4        1       31 1        
       5        2        7 ar       
       6        2        3 ar       
       7        3        4 ar       
       8        3       32 1        
       9        4        5 ar       
      10        4       25 1        
      11        5        6 ar       
      12        5       33 1        
      13        6        7 ar       
      14        6       34 1        
      15        7        8 1        
      16        8        9 am       
      17        8       35 1        
      18        9       10 2        
      19        9       11 am       
      20       11       12 1        
      21       11       36 1        
      22       12       13 1        
      23       12       37 1        
      24       12       38 1        
      25       13       14 1        
      26       13       39 1        
      27       13       40 1        
      28       14       19 ar       
      29       14       15 ar       
      30       15       16 ar       
      31       15       41 1        
      32       16       17 ar       
      33       16       42 1        
      34       17       18 ar       
      35       17       20 1        
      36       18       19 ar       
      37       18       43 1        
      38       19       44 1        
      39       20       21 1        
      40       21       22 1        
      41       21       45 1        
      42       21       46 1        
      43       22       23 2        
      44       22       24 am       
      45       24       47 1        
      46       24       48 1        
      47       25       26 2        
      48       25       27 1        
      49       27       28 1        
      50       28       49 1        
      51       28       50 1        
      52       28       51 1        

