#        1GCZ_R01_S0001_C0000_L00007_S0001_C0049_G0010_E0001.mol2
#        Tue Jun  6 14:09:23 2017
#        Descriptor:     21    13    22     7     7    14
#        Energy - RMSD - RMSD MassCentre:     -52.9702    999.9999    999.9999
#        Receptor:       1  Surface Point:     1  Conformer:     0
#        Ligand:         7  Surface Point:     1  Conformer:    49
#        BUDE Formal Charge: 0
#        ATOM Count: 51
#        Heavy ATOM Count: 28
@<TRIPOS>MOLECULE
ZINC61408927_1GCZ_R01_S0001_C0000_L00007_S0001_C0049_G0010_E0001
 51 52 0 0 0
SMALL
USER_CHARGES
@<TRIPOS>ATOM
       1 C1        -3.6352   -1.2004    9.3948 C.3       1 <0>        -0.1139 
       2 C2        -2.5484   -2.2442    9.4890 C.ar      1 <0>        -0.1278 
       3 C3        -2.7943   -3.4252   10.1992 C.ar      1 <0>        -0.0331 
       4 C4        -1.7926   -4.3869   10.3775 C.ar      1 <0>        -0.1443 
       5 C5        -0.5322   -4.1663    9.8193 C.ar      1 <0>        -0.0449 
       6 C6        -0.2903   -3.0084    9.0707 C.ar      1 <0>        -0.1321 
       7 C7        -1.2982   -2.0542    8.8884 C.ar      1 <0>         0.2027 
       8 N1        -1.0334   -0.9090    8.1004 N.am      1 <0>        -0.6834 
       9 C8         0.0698   -0.8508    7.3599 C.2       1 <0>         0.7034 
      10 O1         0.8733   -1.8084    7.3600 O.2       1 <0>        -0.5648 
      11 N2         0.3174    0.2263    6.6198 N.am      1 <0>        -0.7401 
      12 C9        -0.6284    1.3515    6.6209 C.3       1 <0>         0.1407 
      13 C10       -0.1111    2.4514    5.6951 C.3       1 <0>        -0.0859 
      14 C11       -0.0473    1.9283    4.2800 C.ar      1 <0>        -0.1215 
      15 C12        1.1198    1.3180    3.8057 C.ar      1 <0>        -0.0699 
      16 C13        1.1808    0.8250    2.4967 C.ar      1 <0>        -0.1435 
      17 C14        0.0738    0.9381    1.6550 C.ar      1 <0>         0.1289 
      18 C15       -1.0922    1.5605    2.1164 C.ar      1 <0>        -0.2084 
      19 C16       -1.1485    2.0551    3.4250 C.ar      1 <0>        -0.0704 
      20 O2         0.1273    0.4342    0.3824 O.3       1 <0>        -0.2897 
      21 C17       -0.4729    1.1980   -0.6673 C.3       1 <0>         0.0392 
      22 C18       -0.3034    0.4694   -1.9790 C.2       1 <0>         0.5189 
      23 O3        -1.2642   -0.1002   -2.4943 O.2       1 <0>        -0.5164 
      24 N3         0.8846    0.4440   -2.5763 N.am      1 <0>        -0.8500 
      25 C19       -2.0560   -5.6213   11.1502 C.2       1 <0>         0.5100 
      26 O4        -1.1901   -6.4324   11.2932 O.2       1 <0>        -0.5069 
      27 O5        -3.2743   -5.8303   11.6929 O.3       1 <0>        -0.3499 
      28 C20       -3.4816   -7.0376   12.4310 C.3       1 <0>         0.0344 
      29 H1        -3.6218   -0.7522    8.4035 H         1 <0>         0.0741 
      30 H2        -3.4633   -0.4302   10.1439 H         1 <0>         0.0756 
      31 H3        -4.6021   -1.6676    9.5693 H         1 <0>         0.0654 
      32 H4        -3.7733   -3.6062   10.6178 H         1 <0>         0.1419 
      33 H5         0.2602   -4.8859    9.9625 H         1 <0>         0.1420 
      34 H6         0.6795   -2.8453    8.6242 H         1 <0>         0.1513 
      35 H7        -1.6825   -0.1353    8.1004 H         1 <0>         0.4099 
      36 H8         1.1552    0.2705    6.0575 H         1 <0>         0.3991 
      37 H9        -0.7245    1.7427    7.6316 H         1 <0>         0.0724 
      38 H10       -1.5995    1.0084    6.2703 H         1 <0>         0.0717 
      39 H11        0.8832    2.7559    6.0150 H         1 <0>         0.0798 
      40 H12       -0.7836    3.3056    5.7367 H         1 <0>         0.0807 
      41 H13        1.9852    1.2237    4.4448 H         1 <0>         0.1319 
      42 H14        2.0824    0.3551    2.1324 H         1 <0>         0.1348 
      43 H15       -1.9413    1.6585    1.4562 H         1 <0>         0.1287 
      44 H16       -2.0524    2.5378    3.7662 H         1 <0>         0.1269 
      45 H17        0.0089    2.1715   -0.7275 H         1 <0>         0.0958 
      46 H18       -1.5327    1.3293   -0.4589 H         1 <0>         0.0955 
      47 H19        1.6728    0.9119   -2.1523 H         1 <0>         0.4037 
      48 H20        0.9979   -0.0433   -3.4537 H         1 <0>         0.4105 
      49 H21       -2.7974   -7.0671   13.2764 H         1 <0>         0.0617 
      50 H22       -4.5073   -7.0693   12.7924 H         1 <0>         0.0616 
      51 H23       -3.2976   -7.8932   11.7847 H         1 <0>         0.1040 
@<TRIPOS>BOND
       1        1        2 1        
       2        1       29 1        
       3        1       30 1        
       4        1       31 1        
       5        2        7 ar       
       6        2        3 ar       
       7        3        4 ar       
       8        3       32 1        
       9        4        5 ar       
      10        4       25 1        
      11        5        6 ar       
      12        5       33 1        
      13        6        7 ar       
      14        6       34 1        
      15        7        8 1        
      16        8        9 am       
      17        8       35 1        
      18        9       10 2        
      19        9       11 am       
      20       11       12 1        
      21       11       36 1        
      22       12       13 1        
      23       12       37 1        
      24       12       38 1        
      25       13       14 1        
      26       13       39 1        
      27       13       40 1        
      28       14       19 ar       
      29       14       15 ar       
      30       15       16 ar       
      31       15       41 1        
      32       16       17 ar       
      33       16       42 1        
      34       17       18 ar       
      35       17       20 1        
      36       18       19 ar       
      37       18       43 1        
      38       19       44 1        
      39       20       21 1        
      40       21       22 1        
      41       21       45 1        
      42       21       46 1        
      43       22       23 2        
      44       22       24 am       
      45       24       47 1        
      46       24       48 1        
      47       25       26 2        
      48       25       27 1        
      49       27       28 1        
      50       28       49 1        
      51       28       50 1        
      52       28       51 1        

