#        1GCZ_R01_S0001_C0000_L00008_S0001_C0000_G0010_E0001.mol2
#        Tue Jun  6 14:09:27 2017
#        Descriptor:     28    14     9    10    10    14
#        Energy - RMSD - RMSD MassCentre:     -70.0051    999.9999    999.9999
#        Receptor:       1  Surface Point:     1  Conformer:     0
#        Ligand:         8  Surface Point:     1  Conformer:     0
#        BUDE Formal Charge: 0
#        ATOM Count: 65
#        Heavy ATOM Count: 31
@<TRIPOS>MOLECULE
ZINC61400536_1GCZ_R01_S0001_C0000_L00008_S0001_C0000_G0010_E0001
 65 68 0 0 0
SMALL
USER_CHARGES
@<TRIPOS>ATOM
       1 C1         7.5569    0.7290    8.0973 C.3       1 <0>        -0.1457 
       2 C2         6.3522    0.8197    7.1586 C.3       1 <0>         0.1768 
       3 C3         6.8341    1.1205    5.7379 C.3       1 <0>        -0.1798 
       4 C4         5.5957   -0.5102    7.1697 C.3       1 <0>        -0.1802 
       5 N1         5.4615    1.8919    7.6094 N.pl3     1 <0>        -0.2386 
       6 C5         4.2713    2.2237    7.0269 C.2       1 <0>        -0.0401 
       7 C6         3.7621    3.2802    7.7619 C.2       1 <0>        -0.1820 
       8 C7         4.7039    3.5211    8.7647 C.2       1 <0>         0.0520 
       9 N2         5.6779    2.6598    8.6160 N.2       1 <0>        -0.2594 
      10 C8         4.6121    4.5811    9.8320 C.3       1 <0>        -0.0741 
      11 C9         3.6065    5.7141    9.6178 C.3       1 <0>        -0.1663 
      12 C10        5.1057    5.9852    9.4773 C.3       1 <0>        -0.1657 
      13 C11        3.6544    1.5860    5.8528 C.2       1 <0>         0.5920 
      14 O1         4.2596    0.7283    5.2385 O.2       1 <0>        -0.5202 
      15 N3         2.4188    1.9525    5.4583 N.am      1 <0>        -0.7096 
      16 C12        1.7603    1.2425    4.3591 C.3       1 <0>         0.1269 
      17 C13        0.4312    1.9270    4.0335 C.3       1 <0>         0.1209 
      18 C14       -0.4829    1.8432    5.2287 C.ar      1 <0>        -0.1261 
      19 C15       -1.1794    0.6764    5.4844 C.ar      1 <0>        -0.0471 
      20 C16       -2.0184    0.5972    6.5790 C.ar      1 <0>        -0.1526 
      21 C17       -2.1615    1.6894    7.4224 C.ar      1 <0>         0.1329 
      22 C18       -1.4612    2.8588    7.1639 C.ar      1 <0>        -0.2055 
      23 C19       -0.6195    2.9312    6.0709 C.ar      1 <0>        -0.0791 
      24 O2        -2.9865    1.6142    8.4996 O.3       1 <0>        -0.3169 
      25 C20       -3.0847    2.7771    9.3241 C.3       1 <0>         0.0263 
      26 N4        -0.1976    1.2559    2.8881 N.3       1 <0>        -0.5235 
      27 C21        0.7397    1.1491    1.7605 C.3       1 <0>         0.0085 
      28 C22        0.0650    0.3927    0.6130 C.3       1 <0>         0.0643 
      29 O3        -1.1436    1.0659    0.2505 O.3       1 <0>        -0.3844 
      30 C23       -2.0796    1.1870    1.3250 C.3       1 <0>         0.0641 
      31 C24       -1.4268    1.9515    2.4797 C.3       1 <0>         0.0200 
      32 H1         8.0959    1.6764    8.0895 H         1 <0>         0.0684 
      33 H2         7.2136    0.5147    9.1094 H         1 <0>         0.0673 
      34 H3         8.2196   -0.0688    7.7619 H         1 <0>         0.0762 
      35 H4         7.5600    0.3666    5.4333 H         1 <0>         0.0772 
      36 H5         5.9847    1.1041    5.0550 H         1 <0>         0.1076 
      37 H6         7.3009    2.1051    5.7135 H         1 <0>         0.0533 
      38 H7         5.1795   -0.6832    8.1621 H         1 <0>         0.0541 
      39 H8         4.7883   -0.4751    6.4382 H         1 <0>         0.1047 
      40 H9         6.2804   -1.3197    6.9165 H         1 <0>         0.0783 
      41 H10        2.8340    3.8068    7.5950 H         1 <0>         0.1546 
      42 H11        4.7708    4.2349   10.8533 H         1 <0>         0.1185 
      43 H12        3.0112    5.6927    8.7049 H         1 <0>         0.0960 
      44 H13        3.1032    6.1134   10.4982 H         1 <0>         0.1015 
      45 H14        5.5886    6.5629   10.2654 H         1 <0>         0.1002 
      46 H15        5.4967    6.1423    8.4720 H         1 <0>         0.0943 
      47 H16        1.9657    2.6862    5.9022 H         1 <0>         0.4026 
      48 H17        2.4028    1.2596    3.4788 H         1 <0>         0.0820 
      49 H18        1.5744    0.2095    4.6533 H         1 <0>         0.0826 
      50 H19        0.6121    2.9733    3.7873 H         1 <0>         0.0584 
      51 H20       -1.0677   -0.1735    4.8276 H         1 <0>         0.1381 
      52 H21       -2.5627   -0.3141    6.7780 H         1 <0>         0.1314 
      53 H22       -1.5708    3.7105    7.8190 H         1 <0>         0.1295 
      54 H23       -0.0707    3.8399    5.8717 H         1 <0>         0.1215 
      55 H24       -2.1012    3.0224    9.7251 H         1 <0>         0.0567 
      56 H25       -3.4539    3.6133    8.7304 H         1 <0>         0.0562 
      57 H26       -3.7740    2.5827   10.1459 H         1 <0>         0.1014 
      58 H27        1.0192    2.1474    1.4238 H         1 <0>         0.0471 
      59 H28        1.6313    0.6086    2.0782 H         1 <0>         0.0943 
      60 H29        0.7356    0.3608   -0.2457 H         1 <0>         0.0999 
      61 H30       -0.1661   -0.6233    0.9331 H         1 <0>         0.0621 
      62 H31       -2.9603    1.7296    0.9811 H         1 <0>         0.0991 
      63 H32       -2.3731    0.1941    1.6657 H         1 <0>         0.0615 
      64 H33       -2.1166    1.9966    3.3224 H         1 <0>         0.0908 
      65 H34       -1.1819    2.9625    2.1544 H         1 <0>         0.0448 
@<TRIPOS>BOND
       1        1        2 1        
       2        1       32 1        
       3        1       33 1        
       4        1       34 1        
       5        2        3 1        
       6        2        4 1        
       7        2        5 1        
       8        3       35 1        
       9        3       36 1        
      10        3       37 1        
      11        4       38 1        
      12        4       39 1        
      13        4       40 1        
      14        5        9 1        
      15        5        6 1        
      16        6        7 2        
      17        6       13 1        
      18        7        8 1        
      19        7       41 1        
      20        8        9 2        
      21        8       10 1        
      22       10       12 1        
      23       10       11 1        
      24       10       42 1        
      25       11       12 1        
      26       11       43 1        
      27       11       44 1        
      28       12       45 1        
      29       12       46 1        
      30       13       14 2        
      31       13       15 am       
      32       15       16 1        
      33       15       47 1        
      34       16       17 1        
      35       16       48 1        
      36       16       49 1        
      37       17       18 1        
      38       17       26 1        
      39       17       50 1        
      40       18       23 ar       
      41       18       19 ar       
      42       19       20 ar       
      43       19       51 1        
      44       20       21 ar       
      45       20       52 1        
      46       21       22 ar       
      47       21       24 1        
      48       22       23 ar       
      49       22       53 1        
      50       23       54 1        
      51       24       25 1        
      52       25       55 1        
      53       25       56 1        
      54       25       57 1        
      55       26       31 1        
      56       26       27 1        
      57       27       28 1        
      58       27       58 1        
      59       27       59 1        
      60       28       29 1        
      61       28       60 1        
      62       28       61 1        
      63       29       30 1        
      64       30       31 1        
      65       30       62 1        
      66       30       63 1        
      67       31       64 1        
      68       31       65 1        

