#        1GCZ_R01_S0001_C0000_L00008_S0001_C0001_G0010_E0001.mol2
#        Tue Jun  6 09:57:06 2017
#        Descriptor:     21     5    20     8    10    14
#        Energy - RMSD - RMSD MassCentre:     -70.6054    999.9999    999.9999
#        Receptor:       1  Surface Point:     1  Conformer:     0
#        Ligand:         8  Surface Point:     1  Conformer:     1
#        BUDE Formal Charge: 0
#        ATOM Count: 65
#        Heavy ATOM Count: 31
@<TRIPOS>MOLECULE
ZINC61400536_1GCZ_R01_S0001_C0000_L00008_S0001_C0001_G0010_E0001
 65 68 0 0 0
SMALL
USER_CHARGES
@<TRIPOS>ATOM
       1 C1        -1.3991    7.2232    7.2989 C.3       1 <0>        -0.1457 
       2 C2        -0.1884    6.3449    7.7349 C.3       1 <0>         0.1768 
       3 C3         0.8970    6.2623    6.6075 C.3       1 <0>        -0.1798 
       4 C4         0.5156    7.0261    8.9586 C.3       1 <0>        -0.1802 
       5 N1        -0.6977    5.0387    8.1687 N.pl3     1 <0>        -0.2386 
       6 C5        -0.7503    3.9091    7.5088 C.2       1 <0>        -0.0401 
       7 C6        -1.2309    2.9622    8.3259 C.2       1 <0>        -0.1820 
       8 C7        -1.4671    3.6157    9.6002 C.2       1 <0>         0.0520 
       9 N2        -1.1253    4.8209    9.4301 N.2       1 <0>        -0.2594 
      10 C8        -2.0006    3.0506   10.8885 C.3       1 <0>        -0.0741 
      11 C9        -2.8404    3.9921   11.7837 C.3       1 <0>        -0.1663 
      12 C10       -1.4052    3.6047   12.2045 C.3       1 <0>        -0.1657 
      13 C11       -0.4079    3.5766    6.1084 C.2       1 <0>         0.5920 
      14 O1        -0.0135    4.4620    5.3678 O.2       1 <0>        -0.5202 
      15 N3        -0.5938    2.3171    5.6366 N.am      1 <0>        -0.7096 
      16 C12       -0.2572    2.0027    4.2533 C.3       1 <0>         0.1269 
      17 C13       -0.5662    0.5442    3.8010 C.3       1 <0>         0.1209 
      18 C14        0.3452   -0.3255    4.6991 C.ar      1 <0>        -0.1261 
      19 C15        1.7336   -0.3054    4.5287 C.ar      1 <0>        -0.0471 
      20 C16        2.5510   -1.0855    5.3499 C.ar      1 <0>        -0.1526 
      21 C17        2.0125   -1.8808    6.3659 C.ar      1 <0>         0.1329 
      22 C18        0.6269   -1.9070    6.5276 C.ar      1 <0>        -0.2055 
      23 C19       -0.1993   -1.1371    5.7017 C.ar      1 <0>        -0.0791 
      24 O2         2.8882   -2.6391    7.1671 O.3       1 <0>        -0.3169 
      25 C20        4.1094   -3.1825    6.6356 C.3       1 <0>         0.0263 
      26 N4        -0.1752    0.2051    2.4042 N.3       1 <0>        -0.5235 
      27 C21       -0.4708   -1.2108    2.0111 C.3       1 <0>         0.0085 
      28 C22        0.0910   -1.5318    0.6029 C.3       1 <0>         0.0643 
      29 O3        -0.4497   -0.6036   -0.3516 O.3       1 <0>        -0.3844 
      30 C23       -0.1147    0.7539   -0.0340 C.3       1 <0>         0.0641 
      31 C24       -0.6687    1.1373    1.3624 C.3       1 <0>         0.0200 
      32 H1        -2.1293    7.3036    8.1216 H         1 <0>         0.0684 
      33 H2        -1.8935    6.7737    6.4216 H         1 <0>         0.0673 
      34 H3        -1.0544    8.2328    7.0307 H         1 <0>         0.0762 
      35 H4         0.4787    5.7825    5.7067 H         1 <0>         0.0772 
      36 H5         1.2484    7.2744    6.3457 H         1 <0>         0.1076 
      37 H6         1.7679    5.6619    6.9035 H         1 <0>         0.0533 
      38 H7         1.3851    6.4312    9.2863 H         1 <0>         0.0541 
      39 H8        -0.1904    7.1175    9.8013 H         1 <0>         0.1047 
      40 H9         0.8697    8.0341    8.6850 H         1 <0>         0.0783 
      41 H10       -1.4263    1.9129    8.1024 H         1 <0>         0.1546 
      42 H11       -2.2926    1.9870   10.9236 H         1 <0>         0.1185 
      43 H12       -2.9860    5.0251   11.4271 H         1 <0>         0.0960 
      44 H13       -3.6752    3.5285   12.3363 H         1 <0>         0.1015 
      45 H14       -0.6343    4.3878   12.1148 H         1 <0>         0.1002 
      46 H15       -1.2999    2.8873   13.0358 H         1 <0>         0.0943 
      47 H16       -0.9637    1.6120    6.2390 H         1 <0>         0.4026 
      48 H17        0.8252    2.1721    4.1060 H         1 <0>         0.0820 
      49 H18       -0.8188    2.6707    3.5765 H         1 <0>         0.0826 
      50 H19       -1.6387    0.3366    3.9689 H         1 <0>         0.0584 
      51 H20        2.1854    0.3134    3.7588 H         1 <0>         0.1381 
      52 H21        3.6287   -1.0709    5.2154 H         1 <0>         0.1314 
      53 H22        0.1561   -2.5176    7.2900 H         1 <0>         0.1295 
      54 H23       -1.2760   -1.1728    5.8414 H         1 <0>         0.1215 
      55 H24        4.7505   -2.3582    6.2845 H         1 <0>         0.0567 
      56 H25        4.6495   -3.7383    7.4205 H         1 <0>         0.0562 
      57 H26        3.8900   -3.8439    5.7807 H         1 <0>         0.1014 
      58 H27       -1.5597   -1.3968    1.9827 H         1 <0>         0.0471 
      59 H28       -0.0331   -1.9493    2.7045 H         1 <0>         0.0943 
      60 H29        1.1946   -1.4756    0.6156 H         1 <0>         0.0999 
      61 H30       -0.1964   -2.5500    0.2875 H         1 <0>         0.0621 
      62 H31        0.9801    0.9028   -0.0618 H         1 <0>         0.0991 
      63 H32       -0.5646    1.4022   -0.8064 H         1 <0>         0.0615 
      64 H33       -1.7717    1.1082    1.3192 H         1 <0>         0.0908 
      65 H34       -0.3520    2.1723    1.5854 H         1 <0>         0.0448 
@<TRIPOS>BOND
       1        1        2 1        
       2        1       32 1        
       3        1       33 1        
       4        1       34 1        
       5        2        3 1        
       6        2        4 1        
       7        2        5 1        
       8        3       35 1        
       9        3       36 1        
      10        3       37 1        
      11        4       38 1        
      12        4       39 1        
      13        4       40 1        
      14        5        9 1        
      15        5        6 1        
      16        6        7 2        
      17        6       13 1        
      18        7        8 1        
      19        7       41 1        
      20        8        9 2        
      21        8       10 1        
      22       10       12 1        
      23       10       11 1        
      24       10       42 1        
      25       11       12 1        
      26       11       43 1        
      27       11       44 1        
      28       12       45 1        
      29       12       46 1        
      30       13       14 2        
      31       13       15 am       
      32       15       16 1        
      33       15       47 1        
      34       16       17 1        
      35       16       48 1        
      36       16       49 1        
      37       17       18 1        
      38       17       26 1        
      39       17       50 1        
      40       18       23 ar       
      41       18       19 ar       
      42       19       20 ar       
      43       19       51 1        
      44       20       21 ar       
      45       20       52 1        
      46       21       22 ar       
      47       21       24 1        
      48       22       23 ar       
      49       22       53 1        
      50       23       54 1        
      51       24       25 1        
      52       25       55 1        
      53       25       56 1        
      54       25       57 1        
      55       26       31 1        
      56       26       27 1        
      57       27       28 1        
      58       27       58 1        
      59       27       59 1        
      60       28       29 1        
      61       28       60 1        
      62       28       61 1        
      63       29       30 1        
      64       30       31 1        
      65       30       62 1        
      66       30       63 1        
      67       31       64 1        
      68       31       65 1        

