#        1GCZ_R01_S0001_C0000_L00008_S0001_C0001_G0010_E0001.mol2
#        Tue Jun  6 14:09:29 2017
#        Descriptor:     23     4     9    10     9    14
#        Energy - RMSD - RMSD MassCentre:     -73.1026    999.9999    999.9999
#        Receptor:       1  Surface Point:     1  Conformer:     0
#        Ligand:         8  Surface Point:     1  Conformer:     1
#        BUDE Formal Charge: 0
#        ATOM Count: 65
#        Heavy ATOM Count: 31
@<TRIPOS>MOLECULE
ZINC61400536_1GCZ_R01_S0001_C0000_L00008_S0001_C0001_G0010_E0001
 65 68 0 0 0
SMALL
USER_CHARGES
@<TRIPOS>ATOM
       1 C1         7.4710    1.9916    5.8945 C.3       1 <0>        -0.1457 
       2 C2         6.6216    1.0060    6.7514 C.3       1 <0>         0.1768 
       3 C3         6.2117   -0.2637    5.9293 C.3       1 <0>        -0.1798 
       4 C4         7.5002    0.4824    7.9392 C.3       1 <0>        -0.1802 
       5 N1         5.4848    1.7444    7.3137 N.pl3     1 <0>        -0.2386 
       6 C5         4.2450    1.8001    6.8966 C.2       1 <0>        -0.0401 
       7 C6         3.5398    2.5436    7.7599 C.2       1 <0>        -0.1820 
       8 C7         4.4732    2.9480    8.7951 C.2       1 <0>         0.0520 
       9 N2         5.5824    2.4370    8.4680 N.2       1 <0>        -0.2594 
      10 C8         4.2469    3.7905   10.0209 C.3       1 <0>        -0.0741 
      11 C9         5.4227    4.6721   10.5043 C.3       1 <0>        -0.1663 
      12 C10        5.0305    3.4062   11.2983 C.3       1 <0>        -0.1657 
      13 C11        3.5880    1.2290    5.7004 C.2       1 <0>         0.5920 
      14 O1         4.2566    0.5920    4.9035 O.2       1 <0>        -0.5202 
      15 N3         2.2732    1.4674    5.4595 N.am      1 <0>        -0.7096 
      16 C12        1.6380    0.9030    4.2747 C.3       1 <0>         0.1269 
      17 C13        0.1432    1.2889    4.0649 C.3       1 <0>         0.1209 
      18 C14       -0.5738    0.6852    5.2958 C.ar      1 <0>        -0.1261 
      19 C15       -0.6962   -0.7016    5.4339 C.ar      1 <0>        -0.0471 
      20 C16       -1.3358   -1.2399    6.5529 C.ar      1 <0>        -0.1526 
      21 C17       -1.8454   -0.4189    7.5632 C.ar      1 <0>         0.1329 
      22 C18       -1.7312    0.9642    7.4187 C.ar      1 <0>        -0.2055 
      23 C19       -1.1019    1.5113    6.2953 C.ar      1 <0>        -0.0791 
      24 O2        -2.4728   -1.0206    8.6716 O.3       1 <0>        -0.3169 
      25 C20       -3.2100   -2.2487    8.5401 C.3       1 <0>         0.0263 
      26 N4        -0.5232    0.6719    2.8842 N.3       1 <0>        -0.5235 
      27 C21       -1.9645    1.0515    2.7255 C.3       1 <0>         0.0085 
      28 C22       -2.6285    0.2639    1.5677 C.3       1 <0>         0.0643 
      29 O3        -1.8949    0.4888    0.3527 O.3       1 <0>        -0.3844 
      30 C23       -0.5300    0.0631    0.4595 C.3       1 <0>         0.0641 
      31 C24        0.1916    0.8332    1.5954 C.3       1 <0>         0.0200 
      32 H1         7.7850    2.8556    6.5039 H         1 <0>         0.0684 
      33 H2         6.8781    2.3523    5.0375 H         1 <0>         0.0673 
      34 H3         8.3682    1.4818    5.5132 H         1 <0>         0.0762 
      35 H4         5.5785    0.0220    5.0725 H         1 <0>         0.0772 
      36 H5         7.1121   -0.7790    5.5551 H         1 <0>         0.1076 
      37 H6         5.6273   -0.9799    6.5226 H         1 <0>         0.0533 
      38 H7         6.9282   -0.2269    8.5614 H         1 <0>         0.0541 
      39 H8         7.8275    1.3255    8.5710 H         1 <0>         0.1047 
      40 H9         8.3939   -0.0374    7.5551 H         1 <0>         0.0783 
      41 H10        2.4848    2.8153    7.7122 H         1 <0>         0.1546 
      42 H11        3.2422    4.2092   10.2019 H         1 <0>         0.1185 
      43 H12        6.3600    4.6189    9.9263 H         1 <0>         0.0960 
      44 H13        5.1561    5.6495   10.9410 H         1 <0>         0.1015 
      45 H14        5.7145    2.5444   11.2261 H         1 <0>         0.1002 
      46 H15        4.5076    3.5549   12.2581 H         1 <0>         0.0943 
      47 H16        1.7476    2.0315    6.0939 H         1 <0>         0.4026 
      48 H17        1.6890   -0.1995    4.3379 H         1 <0>         0.0820 
      49 H18        2.1811    1.2347    3.3721 H         1 <0>         0.0826 
      50 H19        0.0588    2.3904    4.0312 H         1 <0>         0.0584 
      51 H20       -0.2974   -1.3683    4.6747 H         1 <0>         0.1381 
      52 H21       -1.4322   -2.3167    6.6581 H         1 <0>         0.1314 
      53 H22       -2.1221    1.6468    8.1650 H         1 <0>         0.1295 
      54 H23       -1.0249    2.5907    6.1995 H         1 <0>         0.1215 
      55 H24       -2.5336   -3.0410    8.1815 H         1 <0>         0.0567 
      56 H25       -3.6185   -2.5514    9.5188 H         1 <0>         0.0562 
      57 H26       -4.0247   -2.1256    7.8069 H         1 <0>         0.1014 
      58 H27       -2.0697    2.1274    2.4963 H         1 <0>         0.0471 
      59 H28       -2.5632    0.8520    3.6307 H         1 <0>         0.0943 
      60 H29       -2.6540   -0.8138    1.8109 H         1 <0>         0.0999 
      61 H30       -3.6666    0.6031    1.4058 H         1 <0>         0.0621 
      62 H31       -0.4735   -1.0253    0.6437 H         1 <0>         0.0991 
      63 H32       -0.0354    0.2695   -0.5059 H         1 <0>         0.0615 
      64 H33        0.2368    1.9010    1.3178 H         1 <0>         0.0908 
      65 H34        1.2235    0.4451    1.6720 H         1 <0>         0.0448 
@<TRIPOS>BOND
       1        1        2 1        
       2        1       32 1        
       3        1       33 1        
       4        1       34 1        
       5        2        3 1        
       6        2        4 1        
       7        2        5 1        
       8        3       35 1        
       9        3       36 1        
      10        3       37 1        
      11        4       38 1        
      12        4       39 1        
      13        4       40 1        
      14        5        9 1        
      15        5        6 1        
      16        6        7 2        
      17        6       13 1        
      18        7        8 1        
      19        7       41 1        
      20        8        9 2        
      21        8       10 1        
      22       10       12 1        
      23       10       11 1        
      24       10       42 1        
      25       11       12 1        
      26       11       43 1        
      27       11       44 1        
      28       12       45 1        
      29       12       46 1        
      30       13       14 2        
      31       13       15 am       
      32       15       16 1        
      33       15       47 1        
      34       16       17 1        
      35       16       48 1        
      36       16       49 1        
      37       17       18 1        
      38       17       26 1        
      39       17       50 1        
      40       18       23 ar       
      41       18       19 ar       
      42       19       20 ar       
      43       19       51 1        
      44       20       21 ar       
      45       20       52 1        
      46       21       22 ar       
      47       21       24 1        
      48       22       23 ar       
      49       22       53 1        
      50       23       54 1        
      51       24       25 1        
      52       25       55 1        
      53       25       56 1        
      54       25       57 1        
      55       26       31 1        
      56       26       27 1        
      57       27       28 1        
      58       27       58 1        
      59       27       59 1        
      60       28       29 1        
      61       28       60 1        
      62       28       61 1        
      63       29       30 1        
      64       30       31 1        
      65       30       62 1        
      66       30       63 1        
      67       31       64 1        
      68       31       65 1        

