#        1GCZ_R01_S0001_C0000_L00008_S0001_C0002_G0010_E0001.mol2
#        Tue Jun  6 09:57:07 2017
#        Descriptor:      2    14     1     7    10    15
#        Energy - RMSD - RMSD MassCentre:     -75.4036    999.9999    999.9999
#        Receptor:       1  Surface Point:     1  Conformer:     0
#        Ligand:         8  Surface Point:     1  Conformer:     2
#        BUDE Formal Charge: 0
#        ATOM Count: 65
#        Heavy ATOM Count: 31
@<TRIPOS>MOLECULE
ZINC61400536_1GCZ_R01_S0001_C0000_L00008_S0001_C0002_G0010_E0001
 65 68 0 0 0
SMALL
USER_CHARGES
@<TRIPOS>ATOM
       1 C1        -1.1078    7.3193    9.1116 C.3       1 <0>        -0.1457 
       2 C2        -0.2757    6.0641    9.5108 C.3       1 <0>         0.1768 
       3 C3         0.9070    5.8176    8.5126 C.3       1 <0>        -0.1798 
       4 C4         0.3884    6.3210   10.9072 C.3       1 <0>        -0.1802 
       5 N1        -1.1919    4.9251    9.6422 N.pl3     1 <0>        -0.2386 
       6 C5        -1.4534    3.9692    8.7867 C.2       1 <0>        -0.0401 
       7 C6        -2.3024    3.1062    9.3610 C.2       1 <0>        -0.1820 
       8 C7        -2.5444    3.6137   10.6991 C.2       1 <0>         0.0520 
       9 N2        -1.8568    4.6708   10.7888 N.2       1 <0>        -0.2594 
      10 C8        -3.4110    3.0602   11.7974 C.3       1 <0>        -0.0741 
      11 C9        -2.6979    2.3966   12.9991 C.3       1 <0>        -0.1663 
      12 C10       -3.4437    1.5227   11.9662 C.3       1 <0>        -0.1657 
      13 C11       -1.0012    3.7500    7.3951 C.2       1 <0>         0.5920 
      14 O1        -0.2632    4.5702    6.8750 O.2       1 <0>        -0.5202 
      15 N3        -1.4551    2.6852    6.6853 N.am      1 <0>        -0.7096 
      16 C12       -1.0059    2.4825    5.3132 C.3       1 <0>         0.1269 
      17 C13       -1.6351    1.2646    4.5728 C.3       1 <0>         0.1209 
      18 C14       -1.1570    0.0426    5.3925 C.ar      1 <0>        -0.1261 
      19 C15        0.1904   -0.3337    5.3813 C.ar      1 <0>        -0.0471 
      20 C16        0.6167   -1.4319    6.1318 C.ar      1 <0>        -0.1526 
      21 C17       -0.2760   -2.1625    6.9217 C.ar      1 <0>         0.1329 
      22 C18       -1.6211   -1.7917    6.9236 C.ar      1 <0>        -0.2055 
      23 C19       -2.0578   -0.6997    6.1656 C.ar      1 <0>        -0.0791 
      24 O2         0.2148   -3.2550    7.6629 O.3       1 <0>        -0.3169 
      25 C20        1.3032   -4.0611    7.1785 C.3       1 <0>         0.0263 
      26 N4        -1.1392    1.0239    3.1890 N.3       1 <0>        -0.5235 
      27 C21       -1.7531   -0.1662    2.5157 C.3       1 <0>         0.0085 
      28 C22       -1.0887   -0.4397    1.1427 C.3       1 <0>         0.0643 
      29 O3        -1.1904    0.7334    0.3190 O.3       1 <0>        -0.3844 
      30 C23       -0.5437    1.8673    0.9122 C.3       1 <0>         0.0641 
      31 C24       -1.1815    2.1989    2.2859 C.3       1 <0>         0.0200 
      32 H1        -1.9067    7.4995    9.8504 H         1 <0>         0.0684 
      33 H2        -1.5633    7.1686    8.1187 H         1 <0>         0.0673 
      34 H3        -0.4567    8.2050    9.0703 H         1 <0>         0.0762 
      35 H4         0.5188    5.6188    7.4994 H         1 <0>         0.0772 
      36 H5         1.5641    6.7026    8.4787 H         1 <0>         0.1076 
      37 H6         1.5171    4.9468    8.7881 H         1 <0>         0.0533 
      38 H7         0.9937    5.4513   11.2146 H         1 <0>         0.0541 
      39 H8        -0.3876    6.5014   11.6703 H         1 <0>         0.1047 
      40 H9         1.0489    7.2031   10.8613 H         1 <0>         0.0783 
      41 H10       -2.7457    2.2075    8.9309 H         1 <0>         0.1546 
      42 H11       -4.3576    3.5733   12.0393 H         1 <0>         0.1185 
      43 H12       -1.5964    2.3592   12.9704 H         1 <0>         0.0960 
      44 H13       -3.1707    2.5324   13.9865 H         1 <0>         0.1015 
      45 H14       -2.8202    0.9297   11.2767 H         1 <0>         0.1002 
      46 H15       -4.4062    1.0837   12.2785 H         1 <0>         0.0943 
      47 H16       -2.0977    2.0472    7.1058 H         1 <0>         0.4026 
      48 H17        0.0898    2.3362    5.3182 H         1 <0>         0.0820 
      49 H18       -1.2441    3.3774    4.7115 H         1 <0>         0.0826 
      50 H19       -2.7354    1.3689    4.5821 H         1 <0>         0.0584 
      51 H20        0.9129    0.2220    4.7906 H         1 <0>         0.1381 
      52 H21        1.6627   -1.7246    6.1208 H         1 <0>         0.1314 
      53 H22       -2.3580   -2.3328    7.5065 H         1 <0>         0.1295 
      54 H23       -3.1095   -0.4280    6.1781 H         1 <0>         0.1215 
      55 H24        2.1963   -3.4279    7.0549 H         1 <0>         0.0567 
      56 H25        1.5354   -4.8589    7.9038 H         1 <0>         0.0562 
      57 H26        1.0454   -4.4977    6.1990 H         1 <0>         0.1014 
      58 H27       -2.8319   -0.0087    2.3353 H         1 <0>         0.0471 
      59 H28       -1.6545   -1.0925    3.1073 H         1 <0>         0.0943 
      60 H29       -0.0298   -0.7217    1.2859 H         1 <0>         0.0999 
      61 H30       -1.5959   -1.2684    0.6183 H         1 <0>         0.0621 
      62 H31        0.5392    1.6810    1.0317 H         1 <0>         0.0991 
      63 H32       -0.6666    2.7234    0.2257 H         1 <0>         0.0615 
      64 H33       -2.2273    2.5107    2.1179 H         1 <0>         0.0908 
      65 H34       -0.6273    3.0476    2.7262 H         1 <0>         0.0448 
@<TRIPOS>BOND
       1        1        2 1        
       2        1       32 1        
       3        1       33 1        
       4        1       34 1        
       5        2        3 1        
       6        2        4 1        
       7        2        5 1        
       8        3       35 1        
       9        3       36 1        
      10        3       37 1        
      11        4       38 1        
      12        4       39 1        
      13        4       40 1        
      14        5        9 1        
      15        5        6 1        
      16        6        7 2        
      17        6       13 1        
      18        7        8 1        
      19        7       41 1        
      20        8        9 2        
      21        8       10 1        
      22       10       12 1        
      23       10       11 1        
      24       10       42 1        
      25       11       12 1        
      26       11       43 1        
      27       11       44 1        
      28       12       45 1        
      29       12       46 1        
      30       13       14 2        
      31       13       15 am       
      32       15       16 1        
      33       15       47 1        
      34       16       17 1        
      35       16       48 1        
      36       16       49 1        
      37       17       18 1        
      38       17       26 1        
      39       17       50 1        
      40       18       23 ar       
      41       18       19 ar       
      42       19       20 ar       
      43       19       51 1        
      44       20       21 ar       
      45       20       52 1        
      46       21       22 ar       
      47       21       24 1        
      48       22       23 ar       
      49       22       53 1        
      50       23       54 1        
      51       24       25 1        
      52       25       55 1        
      53       25       56 1        
      54       25       57 1        
      55       26       31 1        
      56       26       27 1        
      57       27       28 1        
      58       27       58 1        
      59       27       59 1        
      60       28       29 1        
      61       28       60 1        
      62       28       61 1        
      63       29       30 1        
      64       30       31 1        
      65       30       62 1        
      66       30       63 1        
      67       31       64 1        
      68       31       65 1        

