#        1GCZ_R01_S0001_C0000_L00008_S0001_C0002_G0010_E0001.mol2
#        Tue Jun  6 14:09:31 2017
#        Descriptor:      3    13     2     8    10    14
#        Energy - RMSD - RMSD MassCentre:     -71.7676    999.9999    999.9999
#        Receptor:       1  Surface Point:     1  Conformer:     0
#        Ligand:         8  Surface Point:     1  Conformer:     2
#        BUDE Formal Charge: 0
#        ATOM Count: 65
#        Heavy ATOM Count: 31
@<TRIPOS>MOLECULE
ZINC61400536_1GCZ_R01_S0001_C0000_L00008_S0001_C0002_G0010_E0001
 65 68 0 0 0
SMALL
USER_CHARGES
@<TRIPOS>ATOM
       1 C1        -1.4775    7.3679    7.3299 C.3       1 <0>        -0.1457 
       2 C2        -0.2668    6.4896    7.7659 C.3       1 <0>         0.1768 
       3 C3         0.8185    6.4069    6.6384 C.3       1 <0>        -0.1798 
       4 C4         0.4371    7.1707    8.9895 C.3       1 <0>        -0.1802 
       5 N1        -0.7762    5.1833    8.1996 N.pl3     1 <0>        -0.2386 
       6 C5        -0.8287    4.0538    7.5398 C.2       1 <0>        -0.0401 
       7 C6        -1.3094    3.1068    8.3568 C.2       1 <0>        -0.1820 
       8 C7        -1.5456    3.7603    9.6311 C.2       1 <0>         0.0520 
       9 N2        -1.2038    4.9655    9.4611 N.2       1 <0>        -0.2594 
      10 C8        -2.0790    3.1952   10.9194 C.3       1 <0>        -0.0741 
      11 C9        -1.0720    2.9869   12.0751 C.3       1 <0>        -0.1663 
      12 C10       -1.6273    1.7671   11.3066 C.3       1 <0>        -0.1657 
      13 C11       -0.4864    3.7212    6.1393 C.2       1 <0>         0.5920 
      14 O1        -0.0920    4.6066    5.3987 O.2       1 <0>        -0.5202 
      15 N3        -0.6723    2.4617    5.6676 N.am      1 <0>        -0.7096 
      16 C12       -0.3357    2.1474    4.2842 C.3       1 <0>         0.1269 
      17 C13       -0.6447    0.6889    3.8319 C.3       1 <0>         0.1209 
      18 C14        0.2667   -0.1808    4.7300 C.ar      1 <0>        -0.1261 
      19 C15        1.6551   -0.1608    4.5596 C.ar      1 <0>        -0.0471 
      20 C16        2.4725   -0.9409    5.3808 C.ar      1 <0>        -0.1526 
      21 C17        1.9340   -1.7361    6.3968 C.ar      1 <0>         0.1329 
      22 C18        0.5484   -1.7624    6.5586 C.ar      1 <0>        -0.2055 
      23 C19       -0.2777   -0.9925    5.7326 C.ar      1 <0>        -0.0791 
      24 O2         2.8097   -2.4945    7.1980 O.3       1 <0>        -0.3169 
      25 C20        4.0310   -3.0379    6.6666 C.3       1 <0>         0.0263 
      26 N4        -0.2536    0.3497    2.4352 N.3       1 <0>        -0.5235 
      27 C21       -0.5493   -1.0662    2.0421 C.3       1 <0>         0.0085 
      28 C22        0.0125   -1.3872    0.6339 C.3       1 <0>         0.0643 
      29 O3        -0.5281   -0.4589   -0.3206 O.3       1 <0>        -0.3844 
      30 C23       -0.1932    0.8985   -0.0031 C.3       1 <0>         0.0641 
      31 C24       -0.7472    1.2819    1.3934 C.3       1 <0>         0.0200 
      32 H1        -2.2078    7.4482    8.1525 H         1 <0>         0.0684 
      33 H2        -1.9719    6.9184    6.4526 H         1 <0>         0.0673 
      34 H3        -1.1329    8.3775    7.0617 H         1 <0>         0.0762 
      35 H4         0.4002    5.9271    5.7376 H         1 <0>         0.0772 
      36 H5         1.1699    7.4190    6.3766 H         1 <0>         0.1076 
      37 H6         1.6894    5.8065    6.9344 H         1 <0>         0.0533 
      38 H7         1.3067    6.5758    9.3172 H         1 <0>         0.0541 
      39 H8        -0.2688    7.2622    9.8323 H         1 <0>         0.1047 
      40 H9         0.7913    8.1788    8.7159 H         1 <0>         0.0783 
      41 H10       -1.5048    2.0576    8.1333 H         1 <0>         0.1546 
      42 H11       -3.1040    3.4581   11.2328 H         1 <0>         0.1185 
      43 H12       -0.0207    3.2546   11.8784 H         1 <0>         0.0960 
      44 H13       -1.4528    3.1618   13.0955 H         1 <0>         0.1015 
      45 H14       -0.9332    1.2574   10.6181 H         1 <0>         0.1002 
      46 H15       -2.3721    1.1406   11.8257 H         1 <0>         0.0943 
      47 H16       -1.0422    1.7566    6.2699 H         1 <0>         0.4026 
      48 H17        0.7468    2.3168    4.1369 H         1 <0>         0.0820 
      49 H18       -0.8973    2.8154    3.6074 H         1 <0>         0.0826 
      50 H19       -1.7172    0.4812    3.9998 H         1 <0>         0.0584 
      51 H20        2.1070    0.4581    3.7898 H         1 <0>         0.1381 
      52 H21        3.5502   -0.9263    5.2464 H         1 <0>         0.1314 
      53 H22        0.0776   -2.3730    7.3209 H         1 <0>         0.1295 
      54 H23       -1.3545   -1.0282    5.8724 H         1 <0>         0.1215 
      55 H24        4.6720   -2.2136    6.3155 H         1 <0>         0.0567 
      56 H25        4.5710   -3.5936    7.4514 H         1 <0>         0.0562 
      57 H26        3.8115   -3.6993    5.8116 H         1 <0>         0.1014 
      58 H27       -1.6382   -1.2521    2.0137 H         1 <0>         0.0471 
      59 H28       -0.1115   -1.8046    2.7354 H         1 <0>         0.0943 
      60 H29        1.1161   -1.3309    0.6466 H         1 <0>         0.0999 
      61 H30       -0.2749   -2.4054    0.3184 H         1 <0>         0.0621 
      62 H31        0.9016    1.0474   -0.0309 H         1 <0>         0.0991 
      63 H32       -0.6431    1.5468   -0.7754 H         1 <0>         0.0615 
      64 H33       -1.8501    1.2529    1.3502 H         1 <0>         0.0908 
      65 H34       -0.4305    2.3169    1.6164 H         1 <0>         0.0448 
@<TRIPOS>BOND
       1        1        2 1        
       2        1       32 1        
       3        1       33 1        
       4        1       34 1        
       5        2        3 1        
       6        2        4 1        
       7        2        5 1        
       8        3       35 1        
       9        3       36 1        
      10        3       37 1        
      11        4       38 1        
      12        4       39 1        
      13        4       40 1        
      14        5        9 1        
      15        5        6 1        
      16        6        7 2        
      17        6       13 1        
      18        7        8 1        
      19        7       41 1        
      20        8        9 2        
      21        8       10 1        
      22       10       12 1        
      23       10       11 1        
      24       10       42 1        
      25       11       12 1        
      26       11       43 1        
      27       11       44 1        
      28       12       45 1        
      29       12       46 1        
      30       13       14 2        
      31       13       15 am       
      32       15       16 1        
      33       15       47 1        
      34       16       17 1        
      35       16       48 1        
      36       16       49 1        
      37       17       18 1        
      38       17       26 1        
      39       17       50 1        
      40       18       23 ar       
      41       18       19 ar       
      42       19       20 ar       
      43       19       51 1        
      44       20       21 ar       
      45       20       52 1        
      46       21       22 ar       
      47       21       24 1        
      48       22       23 ar       
      49       22       53 1        
      50       23       54 1        
      51       24       25 1        
      52       25       55 1        
      53       25       56 1        
      54       25       57 1        
      55       26       31 1        
      56       26       27 1        
      57       27       28 1        
      58       27       58 1        
      59       27       59 1        
      60       28       29 1        
      61       28       60 1        
      62       28       61 1        
      63       29       30 1        
      64       30       31 1        
      65       30       62 1        
      66       30       63 1        
      67       31       64 1        
      68       31       65 1        

