#        1GCZ_R01_S0001_C0000_L00008_S0001_C0003_G0010_E0001.mol2
#        Tue Jun  6 09:57:08 2017
#        Descriptor:     23    11    29    14    10    15
#        Energy - RMSD - RMSD MassCentre:     -64.5110    999.9999    999.9999
#        Receptor:       1  Surface Point:     1  Conformer:     0
#        Ligand:         8  Surface Point:     1  Conformer:     3
#        BUDE Formal Charge: 0
#        ATOM Count: 65
#        Heavy ATOM Count: 31
@<TRIPOS>MOLECULE
ZINC61400536_1GCZ_R01_S0001_C0000_L00008_S0001_C0003_G0010_E0001
 65 68 0 0 0
SMALL
USER_CHARGES
@<TRIPOS>ATOM
       1 C1         0.9866    0.9738    7.6169 C.3       1 <0>        -0.1457 
       2 C2         1.3941    2.3378    6.9838 C.3       1 <0>         0.1768 
       3 C3         1.8949    2.1601    5.5095 C.3       1 <0>        -0.1798 
       4 C4         0.1255    3.2544    6.8980 C.3       1 <0>        -0.1802 
       5 N1         2.3680    2.9858    7.8700 N.pl3     1 <0>        -0.2386 
       6 C5         3.6735    3.0236    7.7797 C.2       1 <0>        -0.0401 
       7 C6         4.1458    3.7881    8.7736 C.2       1 <0>        -0.1820 
       8 C7         2.9832    4.2531    9.5076 C.2       1 <0>         0.0520 
       9 N2         1.9863    3.7491    8.9156 N.2       1 <0>        -0.2594 
      10 C8         2.9005    5.1420   10.7185 C.3       1 <0>        -0.0741 
      11 C9         1.7434    4.8834   11.7124 C.3       1 <0>        -0.1663 
      12 C10        1.7087    6.1255   10.7943 C.3       1 <0>        -0.1657 
      13 C11        4.6086    2.3756    6.8338 C.2       1 <0>         0.5920 
      14 O1         4.1619    1.6479    5.9627 O.2       1 <0>        -0.5202 
      15 N3         5.9495    2.5359    6.9755 N.am      1 <0>        -0.7096 
      16 C12        6.8611    1.8884    6.0399 C.3       1 <0>         0.1269 
      17 C13        8.3783    2.0903    6.3308 C.3       1 <0>         0.1209 
      18 C14        9.0801    1.4570    5.1059 C.ar      1 <0>        -0.1261 
      19 C15        9.0505    0.0720    4.9111 C.ar      1 <0>        -0.0471 
      20 C16        9.6775   -0.4918    3.7976 C.ar      1 <0>        -0.1526 
      21 C17       10.3248    0.3043    2.8479 C.ar      1 <0>         0.1329 
      22 C18       10.3618    1.6843    3.0493 C.ar      1 <0>        -0.2055 
      23 C19        9.7457    2.2555    4.1681 C.ar      1 <0>        -0.0791 
      24 O2        10.9319   -0.3215    1.7416 O.3       1 <0>        -0.3169 
      25 C20       10.3877   -1.5234    1.1684 C.3       1 <0>         0.0263 
      26 N4         8.9130    1.3541    7.5101 N.3       1 <0>        -0.5235 
      27 C21       10.3789    1.5579    7.7474 C.3       1 <0>         0.0085 
      28 C22       10.8930    0.6536    8.8961 C.3       1 <0>         0.0643 
      29 O3        10.1325    0.9135   10.0874 O.3       1 <0>        -0.3844 
      30 C23        8.7348    0.6528    9.9031 C.3       1 <0>         0.0641 
      31 C24        8.1604    1.5457    8.7730 C.3       1 <0>         0.0200 
      32 H1         0.5968    1.1269    8.6372 H         1 <0>         0.0684 
      33 H2         1.8613    0.3039    7.6626 H         1 <0>         0.0673 
      34 H3         0.2065    0.4941    7.0074 H         1 <0>         0.0762 
      35 H4         2.7987    1.5283    5.4849 H         1 <0>         0.0772 
      36 H5         1.1088    1.6873    4.8972 H         1 <0>         0.1076 
      37 H6         2.1696    3.1140    5.0393 H         1 <0>         0.0533 
      38 H7         0.3800    4.2274    6.4443 H         1 <0>         0.0541 
      39 H8        -0.2865    3.4293    7.9063 H         1 <0>         0.1047 
      40 H9        -0.6517    2.7766    6.2782 H         1 <0>         0.0783 
      41 H10        5.1843    4.0195    9.0126 H         1 <0>         0.1546 
      42 H11        3.8355    5.5109   11.1739 H         1 <0>         0.1185 
      43 H12        1.0422    4.0695   11.4647 H         1 <0>         0.0960 
      44 H13        1.9679    5.0461   12.7801 H         1 <0>         0.1015 
      45 H14        0.9883    6.1048    9.9599 H         1 <0>         0.1002 
      46 H15        1.9090    7.1041   11.2624 H         1 <0>         0.0943 
      47 H16        6.3054    3.0945    7.7225 H         1 <0>         0.4026 
      48 H17        6.6639    2.2811    5.0256 H         1 <0>         0.0820 
      49 H18        6.6796    0.7990    6.0429 H         1 <0>         0.0826 
      50 H19        8.5857    3.1725    6.4175 H         1 <0>         0.0584 
      51 H20        8.5428   -0.5737    5.6218 H         1 <0>         0.1381 
      52 H21        9.6558   -1.5676    3.6485 H         1 <0>         0.1314 
      53 H22       10.8628    2.3463    2.3519 H         1 <0>         0.1295 
      54 H23        9.7875    3.3320    4.3088 H         1 <0>         0.1215 
      55 H24        9.3669   -1.3220    0.8061 H         1 <0>         0.0567 
      56 H25       11.0059   -1.8490    0.3150 H         1 <0>         0.0562 
      57 H26       10.3382   -2.3188    1.9307 H         1 <0>         0.1014 
      58 H27       10.5947    2.6046    8.0289 H         1 <0>         0.0471 
      59 H28       10.9937    1.3267    6.8605 H         1 <0>         0.0943 
      60 H29       10.8075   -0.4092    8.6060 H         1 <0>         0.0999 
      61 H30       11.9541    0.8639    9.1174 H         1 <0>         0.0621 
      62 H31        8.5638   -0.4135    9.6680 H         1 <0>         0.0991 
      63 H32        8.2213    0.8767   10.8546 H         1 <0>         0.0615 
      64 H33        8.2237    2.5997    9.0960 H         1 <0>         0.0908 
      65 H34        7.0961    1.2828    8.6348 H         1 <0>         0.0448 
@<TRIPOS>BOND
       1        1        2 1        
       2        1       32 1        
       3        1       33 1        
       4        1       34 1        
       5        2        3 1        
       6        2        4 1        
       7        2        5 1        
       8        3       35 1        
       9        3       36 1        
      10        3       37 1        
      11        4       38 1        
      12        4       39 1        
      13        4       40 1        
      14        5        9 1        
      15        5        6 1        
      16        6        7 2        
      17        6       13 1        
      18        7        8 1        
      19        7       41 1        
      20        8        9 2        
      21        8       10 1        
      22       10       12 1        
      23       10       11 1        
      24       10       42 1        
      25       11       12 1        
      26       11       43 1        
      27       11       44 1        
      28       12       45 1        
      29       12       46 1        
      30       13       14 2        
      31       13       15 am       
      32       15       16 1        
      33       15       47 1        
      34       16       17 1        
      35       16       48 1        
      36       16       49 1        
      37       17       18 1        
      38       17       26 1        
      39       17       50 1        
      40       18       23 ar       
      41       18       19 ar       
      42       19       20 ar       
      43       19       51 1        
      44       20       21 ar       
      45       20       52 1        
      46       21       22 ar       
      47       21       24 1        
      48       22       23 ar       
      49       22       53 1        
      50       23       54 1        
      51       24       25 1        
      52       25       55 1        
      53       25       56 1        
      54       25       57 1        
      55       26       31 1        
      56       26       27 1        
      57       27       28 1        
      58       27       58 1        
      59       27       59 1        
      60       28       29 1        
      61       28       60 1        
      62       28       61 1        
      63       29       30 1        
      64       30       31 1        
      65       30       62 1        
      66       30       63 1        
      67       31       64 1        
      68       31       65 1        

