#        1GCZ_R01_S0001_C0000_L00008_S0001_C0003_G0010_E0001.mol2
#        Tue Jun  6 14:09:33 2017
#        Descriptor:     15    29    34    14    10    15
#        Energy - RMSD - RMSD MassCentre:     -61.9471    999.9999    999.9999
#        Receptor:       1  Surface Point:     1  Conformer:     0
#        Ligand:         8  Surface Point:     1  Conformer:     3
#        BUDE Formal Charge: 0
#        ATOM Count: 65
#        Heavy ATOM Count: 31
@<TRIPOS>MOLECULE
ZINC61400536_1GCZ_R01_S0001_C0000_L00008_S0001_C0003_G0010_E0001
 65 68 0 0 0
SMALL
USER_CHARGES
@<TRIPOS>ATOM
       1 C1        10.6124   -0.0963    7.9485 C.3       1 <0>        -0.1457 
       2 C2        10.4908    1.4568    7.9309 C.3       1 <0>         0.1768 
       3 C3         9.7676    1.9911    9.2145 C.3       1 <0>        -0.1798 
       4 C4        11.9301    2.0769    7.9603 C.3       1 <0>        -0.1802 
       5 N1         9.8462    1.8555    6.6742 N.pl3     1 <0>        -0.2386 
       6 C5         8.5951    2.1676    6.4473 C.2       1 <0>        -0.0401 
       7 C6         8.4749    2.5338    5.1641 C.2       1 <0>        -0.1820 
       8 C7         9.8060    2.4356    4.5938 C.2       1 <0>         0.0520 
       9 N2        10.5494    2.0416    5.5374 N.2       1 <0>        -0.2594 
      10 C8        10.2781    2.7221    3.1943 C.3       1 <0>        -0.0741 
      11 C9        11.4514    1.8719    2.6520 C.3       1 <0>        -0.1663 
      12 C10       11.6829    3.3504    3.0360 C.3       1 <0>        -0.1657 
      13 C11        7.4057    2.1462    7.3271 C.2       1 <0>         0.5920 
      14 O1         7.5275    1.7677    8.4803 O.2       1 <0>        -0.5202 
      15 N3         6.1839    2.4800    6.8381 N.am      1 <0>        -0.7096 
      16 C12        5.0184    2.4505    7.7137 C.3       1 <0>         0.1269 
      17 C13        3.6587    2.7933    7.0348 C.3       1 <0>         0.1209 
      18 C14        2.6588    2.8556    8.2140 C.ar      1 <0>        -0.1261 
      19 C15        2.3022    1.6908    8.9018 C.ar      1 <0>        -0.0471 
      20 C16        1.4068    1.7561    9.9718 C.ar      1 <0>        -0.1526 
      21 C17        0.8663    2.9747   10.3933 C.ar      1 <0>         0.1329 
      22 C18        1.2155    4.1337    9.6996 C.ar      1 <0>        -0.2055 
      23 C19        2.1029    4.0749    8.6197 C.ar      1 <0>        -0.0791 
      24 O2        -0.0251    2.9779   11.4839 O.3       1 <0>        -0.3169 
      25 C20        0.1071    2.0359   12.5629 C.3       1 <0>         0.0263 
      26 N4         3.1150    1.7534    6.1174 N.3       1 <0>        -0.5235 
      27 C21        1.7975    2.1101    5.4979 C.3       1 <0>         0.0085 
      28 C22        1.2260    0.9285    4.6740 C.3       1 <0>         0.0643 
      29 O3         2.1807    0.5350    3.6747 O.3       1 <0>        -0.3844 
      30 C23        3.4254    0.1184    4.2518 C.3       1 <0>         0.0641 
      31 C24        4.0542    1.2710    5.0766 C.3       1 <0>         0.0200 
      32 H1        11.1620   -0.4471    7.0589 H         1 <0>         0.0684 
      33 H2         9.6083   -0.5523    7.9541 H         1 <0>         0.0673 
      34 H3        11.1524   -0.4214    8.8501 H         1 <0>         0.0762 
      35 H4         8.7362    1.6032    9.2632 H         1 <0>         0.0772 
      36 H5        10.3148    1.6722   10.1174 H         1 <0>         0.1076 
      37 H6         9.6888    3.0866    9.2292 H         1 <0>         0.0533 
      38 H7        11.8777    3.1790    7.9578 H         1 <0>         0.0541 
      39 H8        12.5049    1.7464    7.0787 H         1 <0>         0.1047 
      40 H9        12.4664    1.7584    8.8699 H         1 <0>         0.0783 
      41 H10        7.5737    2.8355    4.6294 H         1 <0>         0.1546 
      42 H11        9.5405    3.0394    2.4374 H         1 <0>         0.1185 
      43 H12       11.8780    1.1152    3.3309 H         1 <0>         0.0960 
      44 H13       11.4222    1.6240    1.5774 H         1 <0>         0.1015 
      45 H14       12.2545    3.5385    3.9599 H         1 <0>         0.1002 
      46 H15       11.8077    4.0719    2.2111 H         1 <0>         0.0943 
      47 H16        6.0885    2.7411    5.8791 H         1 <0>         0.4026 
      48 H17        5.1725    3.1785    8.5312 H         1 <0>         0.0820 
      49 H18        4.9103    1.4415    8.1493 H         1 <0>         0.0826 
      50 H19        3.7523    3.7641    6.5150 H         1 <0>         0.0584 
      51 H20        2.7161    0.7299    8.6099 H         1 <0>         0.1381 
      52 H21        1.1289    0.8507   10.5038 H         1 <0>         0.1314 
      53 H22        0.8139    5.1025    9.9750 H         1 <0>         0.1295 
      54 H23        2.3607    4.9880    8.0905 H         1 <0>         0.1215 
      55 H24        1.0869    2.1747   13.0471 H         1 <0>         0.0567 
      56 H25       -0.6832    2.2066   13.3131 H         1 <0>         0.0562 
      57 H26        0.0508    1.0048   12.1756 H         1 <0>         0.1014 
      58 H27        1.9001    2.9714    4.8131 H         1 <0>         0.0471 
      59 H28        1.0305    2.3782    6.2446 H         1 <0>         0.0943 
      60 H29        0.9935    0.0803    5.3431 H         1 <0>         0.0999 
      61 H30        0.2952    1.2227    4.1580 H         1 <0>         0.0621 
      62 H31        3.2811   -0.7711    4.8917 H         1 <0>         0.0991 
      63 H32        4.1023   -0.1640    3.4264 H         1 <0>         0.0615 
      64 H33        4.3100    2.0938    4.3860 H         1 <0>         0.0908 
      65 H34        4.9855    0.8954    5.5375 H         1 <0>         0.0448 
@<TRIPOS>BOND
       1        1        2 1        
       2        1       32 1        
       3        1       33 1        
       4        1       34 1        
       5        2        3 1        
       6        2        4 1        
       7        2        5 1        
       8        3       35 1        
       9        3       36 1        
      10        3       37 1        
      11        4       38 1        
      12        4       39 1        
      13        4       40 1        
      14        5        9 1        
      15        5        6 1        
      16        6        7 2        
      17        6       13 1        
      18        7        8 1        
      19        7       41 1        
      20        8        9 2        
      21        8       10 1        
      22       10       12 1        
      23       10       11 1        
      24       10       42 1        
      25       11       12 1        
      26       11       43 1        
      27       11       44 1        
      28       12       45 1        
      29       12       46 1        
      30       13       14 2        
      31       13       15 am       
      32       15       16 1        
      33       15       47 1        
      34       16       17 1        
      35       16       48 1        
      36       16       49 1        
      37       17       18 1        
      38       17       26 1        
      39       17       50 1        
      40       18       23 ar       
      41       18       19 ar       
      42       19       20 ar       
      43       19       51 1        
      44       20       21 ar       
      45       20       52 1        
      46       21       22 ar       
      47       21       24 1        
      48       22       23 ar       
      49       22       53 1        
      50       23       54 1        
      51       24       25 1        
      52       25       55 1        
      53       25       56 1        
      54       25       57 1        
      55       26       31 1        
      56       26       27 1        
      57       27       28 1        
      58       27       58 1        
      59       27       59 1        
      60       28       29 1        
      61       28       60 1        
      62       28       61 1        
      63       29       30 1        
      64       30       31 1        
      65       30       62 1        
      66       30       63 1        
      67       31       64 1        
      68       31       65 1        

