#        1GCZ_R01_S0001_C0000_L00008_S0001_C0004_G0010_E0001.mol2
#        Tue Jun  6 09:57:09 2017
#        Descriptor:      2    13     3     8    10    14
#        Energy - RMSD - RMSD MassCentre:     -73.9975    999.9999    999.9999
#        Receptor:       1  Surface Point:     1  Conformer:     0
#        Ligand:         8  Surface Point:     1  Conformer:     4
#        BUDE Formal Charge: 0
#        ATOM Count: 65
#        Heavy ATOM Count: 31
@<TRIPOS>MOLECULE
ZINC61400536_1GCZ_R01_S0001_C0000_L00008_S0001_C0004_G0010_E0001
 65 68 0 0 0
SMALL
USER_CHARGES
@<TRIPOS>ATOM
       1 C1        -1.4228    7.0940    7.9805 C.3       1 <0>        -0.1457 
       2 C2        -0.1594    6.2292    8.2692 C.3       1 <0>         0.1768 
       3 C3         0.8714    6.3069    7.0913 C.3       1 <0>        -0.1798 
       4 C4         0.5776    6.8136    9.5230 C.3       1 <0>        -0.1802 
       5 N1        -0.5966    4.8654    8.5896 N.pl3     1 <0>        -0.2386 
       6 C5        -0.6385    3.8066    7.8207 C.2       1 <0>        -0.0401 
       7 C6        -1.0418    2.7626    8.5574 C.2       1 <0>        -0.1820 
       8 C7        -1.2396    3.2740    9.9013 C.2       1 <0>         0.0520 
       9 N2        -0.9528    4.5038    9.8401 N.2       1 <0>        -0.2594 
      10 C8        -1.6868    2.5601   11.1477 C.3       1 <0>        -0.0741 
      11 C9        -2.8073    1.5039   10.9987 C.3       1 <0>        -0.1663 
      12 C10       -3.1132    2.8641   11.6643 C.3       1 <0>        -0.1657 
      13 C11       -0.3532    3.6313    6.3795 C.2       1 <0>         0.5920 
      14 O1        -0.0299    4.6027    5.7163 O.2       1 <0>        -0.5202 
      15 N3        -0.5139    2.4187    5.7902 N.am      1 <0>        -0.7096 
      16 C12       -0.2342    2.2596    4.3682 C.3       1 <0>         0.1269 
      17 C13       -0.5093    0.8420    3.7834 C.3       1 <0>         0.1209 
      18 C14        0.4778   -0.0736    4.5457 C.ar      1 <0>        -0.1261 
      19 C15        1.8543    0.0231    4.3156 C.ar      1 <0>        -0.0471 
      20 C16        2.7404   -0.7997    5.0149 C.ar      1 <0>        -0.1526 
      21 C17        2.2834   -1.7153    5.9675 C.ar      1 <0>         0.1329 
      22 C18        0.9095   -1.8172    6.1882 C.ar      1 <0>        -0.2055 
      23 C19        0.0148   -1.0044    5.4835 C.ar      1 <0>        -0.0791 
      24 O2         3.2259   -2.5119    6.6465 O.3       1 <0>        -0.3169 
      25 C20        4.4392   -2.9463    6.0076 C.3       1 <0>         0.0263 
      26 N4        -0.1750    0.6619    2.3431 N.3       1 <0>        -0.5235 
      27 C21       -0.4354   -0.7188    1.8209 C.3       1 <0>         0.0085 
      28 C22        0.0680   -0.8723    0.3633 C.3       1 <0>         0.0643 
      29 O3        -0.5541    0.1230   -0.4658 O.3       1 <0>        -0.3844 
      30 C23       -0.2559    1.4548   -0.0265 C.3       1 <0>         0.0641 
      31 C24       -0.7545    1.6719    1.4255 C.3       1 <0>         0.0200 
      32 H1        -2.1141    7.0599    8.8392 H         1 <0>         0.0684 
      33 H2        -1.9423    6.7140    7.0851 H         1 <0>         0.0673 
      34 H3        -1.1305    8.1393    7.8017 H         1 <0>         0.0762 
      35 H4         0.4277    5.9025    6.1659 H         1 <0>         0.0772 
      36 H5         1.1706    7.3543    6.9188 H         1 <0>         0.1076 
      37 H6         1.7781    5.7178    7.2846 H         1 <0>         0.0533 
      38 H7         1.4842    6.2268    9.7485 H         1 <0>         0.0541 
      39 H8        -0.0889    6.7896   10.4018 H         1 <0>         0.1047 
      40 H9         0.8790    7.8584    9.3383 H         1 <0>         0.0783 
      41 H10       -1.2078    1.7336    8.2368 H         1 <0>         0.1546 
      42 H11       -0.9442    2.3472   11.9357 H         1 <0>         0.1185 
      43 H12       -3.2182    1.3481    9.9875 H         1 <0>         0.0960 
      44 H13       -2.7392    0.6201   11.6553 H         1 <0>         0.1015 
      45 H14       -3.7163    3.5776   11.0789 H         1 <0>         0.1002 
      46 H15       -3.2475    2.8707   12.7591 H         1 <0>         0.0943 
      47 H16       -0.8265    1.6415    6.3334 H         1 <0>         0.4026 
      48 H17        0.8324    2.4893    4.1902 H         1 <0>         0.0820 
      49 H18       -0.8536    2.9674    3.7894 H         1 <0>         0.0826 
      50 H19       -1.5635    0.5726    3.9775 H         1 <0>         0.0584 
      51 H20        2.2437    0.7350    3.5935 H         1 <0>         0.1381 
      52 H21        3.8088   -0.7253    4.8341 H         1 <0>         0.1314 
      53 H22        0.5005   -2.5208    6.9046 H         1 <0>         0.1295 
      54 H23       -1.0516   -1.1002    5.6674 H         1 <0>         0.1215 
      55 H24        5.0303   -2.0641    5.7140 H         1 <0>         0.0567 
      56 H25        5.0381   -3.5543    6.7062 H         1 <0>         0.0562 
      57 H26        4.2033   -3.5273    5.1002 H         1 <0>         0.1014 
      58 H27       -1.5166   -0.9476    1.8229 H         1 <0>         0.0471 
      59 H28        0.0638   -1.5036    2.4146 H         1 <0>         0.0943 
      60 H29        1.1680   -0.7703    0.3318 H         1 <0>         0.0999 
      61 H30       -0.1955   -1.8651   -0.0414 H         1 <0>         0.0621 
      62 H31        0.8298    1.6527   -0.0883 H         1 <0>         0.0991 
      63 H32       -0.7678    2.1574   -0.7073 H         1 <0>         0.0615 
      64 H33       -1.8564    1.6000    1.4294 H         1 <0>         0.0908 
      65 H34       -0.4669    2.6919    1.7387 H         1 <0>         0.0448 
@<TRIPOS>BOND
       1        1        2 1        
       2        1       32 1        
       3        1       33 1        
       4        1       34 1        
       5        2        3 1        
       6        2        4 1        
       7        2        5 1        
       8        3       35 1        
       9        3       36 1        
      10        3       37 1        
      11        4       38 1        
      12        4       39 1        
      13        4       40 1        
      14        5        9 1        
      15        5        6 1        
      16        6        7 2        
      17        6       13 1        
      18        7        8 1        
      19        7       41 1        
      20        8        9 2        
      21        8       10 1        
      22       10       12 1        
      23       10       11 1        
      24       10       42 1        
      25       11       12 1        
      26       11       43 1        
      27       11       44 1        
      28       12       45 1        
      29       12       46 1        
      30       13       14 2        
      31       13       15 am       
      32       15       16 1        
      33       15       47 1        
      34       16       17 1        
      35       16       48 1        
      36       16       49 1        
      37       17       18 1        
      38       17       26 1        
      39       17       50 1        
      40       18       23 ar       
      41       18       19 ar       
      42       19       20 ar       
      43       19       51 1        
      44       20       21 ar       
      45       20       52 1        
      46       21       22 ar       
      47       21       24 1        
      48       22       23 ar       
      49       22       53 1        
      50       23       54 1        
      51       24       25 1        
      52       25       55 1        
      53       25       56 1        
      54       25       57 1        
      55       26       31 1        
      56       26       27 1        
      57       27       28 1        
      58       27       58 1        
      59       27       59 1        
      60       28       29 1        
      61       28       60 1        
      62       28       61 1        
      63       29       30 1        
      64       30       31 1        
      65       30       62 1        
      66       30       63 1        
      67       31       64 1        
      68       31       65 1        

