#        1GCZ_R01_S0001_C0000_L00008_S0001_C0004_G0010_E0001.mol2
#        Tue Jun  6 14:09:35 2017
#        Descriptor:     23     4     9    10     9    14
#        Energy - RMSD - RMSD MassCentre:     -73.2032    999.9999    999.9999
#        Receptor:       1  Surface Point:     1  Conformer:     0
#        Ligand:         8  Surface Point:     1  Conformer:     4
#        BUDE Formal Charge: 0
#        ATOM Count: 65
#        Heavy ATOM Count: 31
@<TRIPOS>MOLECULE
ZINC61400536_1GCZ_R01_S0001_C0000_L00008_S0001_C0004_G0010_E0001
 65 68 0 0 0
SMALL
USER_CHARGES
@<TRIPOS>ATOM
       1 C1         7.5767    1.8919    5.9825 C.3       1 <0>        -0.1457 
       2 C2         6.7273    0.9063    6.8395 C.3       1 <0>         0.1768 
       3 C3         6.3174   -0.3634    6.0173 C.3       1 <0>        -0.1798 
       4 C4         7.6059    0.3827    8.0272 C.3       1 <0>        -0.1802 
       5 N1         5.5905    1.6447    7.4017 N.pl3     1 <0>        -0.2386 
       6 C5         4.3507    1.7004    6.9847 C.2       1 <0>        -0.0401 
       7 C6         3.6455    2.4439    7.8479 C.2       1 <0>        -0.1820 
       8 C7         4.5789    2.8483    8.8831 C.2       1 <0>         0.0520 
       9 N2         5.6881    2.3373    8.5560 N.2       1 <0>        -0.2594 
      10 C8         4.3526    3.6908   10.1089 C.3       1 <0>        -0.0741 
      11 C9         3.4239    4.9196    9.9653 C.3       1 <0>        -0.1663 
      12 C10        4.9494    5.1182   10.1066 C.3       1 <0>        -0.1657 
      13 C11        3.6937    1.1293    5.7884 C.2       1 <0>         0.5920 
      14 O1         4.3623    0.4923    4.9915 O.2       1 <0>        -0.5202 
      15 N3         2.3789    1.3677    5.5475 N.am      1 <0>        -0.7096 
      16 C12        1.7437    0.8033    4.3627 C.3       1 <0>         0.1269 
      17 C13        0.2489    1.1892    4.1529 C.3       1 <0>         0.1209 
      18 C14       -0.4681    0.5855    5.3838 C.ar      1 <0>        -0.1261 
      19 C15       -0.5905   -0.8013    5.5219 C.ar      1 <0>        -0.0471 
      20 C16       -1.2301   -1.3396    6.6409 C.ar      1 <0>        -0.1526 
      21 C17       -1.7397   -0.5186    7.6512 C.ar      1 <0>         0.1329 
      22 C18       -1.6256    0.8645    7.5068 C.ar      1 <0>        -0.2055 
      23 C19       -0.9962    1.4116    6.3833 C.ar      1 <0>        -0.0791 
      24 O2        -2.3671   -1.1203    8.7596 O.3       1 <0>        -0.3169 
      25 C20       -3.1043   -2.3484    8.6281 C.3       1 <0>         0.0263 
      26 N4        -0.4175    0.5722    2.9723 N.3       1 <0>        -0.5235 
      27 C21       -1.8588    0.9518    2.8135 C.3       1 <0>         0.0085 
      28 C22       -2.5228    0.1642    1.6557 C.3       1 <0>         0.0643 
      29 O3        -1.7892    0.3891    0.4407 O.3       1 <0>        -0.3844 
      30 C23       -0.4243   -0.0366    0.5475 C.3       1 <0>         0.0641 
      31 C24        0.2973    0.7335    1.6834 C.3       1 <0>         0.0200 
      32 H1         7.8907    2.7559    6.5919 H         1 <0>         0.0684 
      33 H2         6.9838    2.2526    5.1255 H         1 <0>         0.0673 
      34 H3         8.4739    1.3821    5.6012 H         1 <0>         0.0762 
      35 H4         5.6842   -0.0777    5.1605 H         1 <0>         0.0772 
      36 H5         7.2178   -0.8787    5.6431 H         1 <0>         0.1076 
      37 H6         5.7330   -1.0796    6.6106 H         1 <0>         0.0533 
      38 H7         7.0339   -0.3266    8.6494 H         1 <0>         0.0541 
      39 H8         7.9332    1.2258    8.6590 H         1 <0>         0.1047 
      40 H9         8.4996   -0.1371    7.6431 H         1 <0>         0.0783 
      41 H10        2.5905    2.7156    7.8002 H         1 <0>         0.1546 
      42 H11        4.3303    3.1994   11.0967 H         1 <0>         0.1185 
      43 H12        2.9938    5.1092    8.9680 H         1 <0>         0.0960 
      44 H13        2.7958    5.1648   10.8384 H         1 <0>         0.1015 
      45 H14        5.4941    5.4318    9.2008 H         1 <0>         0.1002 
      46 H15        5.3211    5.4962   11.0739 H         1 <0>         0.0943 
      47 H16        1.8533    1.9318    6.1819 H         1 <0>         0.4026 
      48 H17        1.7947   -0.2992    4.4259 H         1 <0>         0.0820 
      49 H18        2.2868    1.1350    3.4601 H         1 <0>         0.0826 
      50 H19        0.1645    2.2907    4.1192 H         1 <0>         0.0584 
      51 H20       -0.1917   -1.4680    4.7627 H         1 <0>         0.1381 
      52 H21       -1.3265   -2.4164    6.7461 H         1 <0>         0.1314 
      53 H22       -2.0164    1.5471    8.2530 H         1 <0>         0.1295 
      54 H23       -0.9192    2.4910    6.2875 H         1 <0>         0.1215 
      55 H24       -2.4279   -3.1407    8.2695 H         1 <0>         0.0567 
      56 H25       -3.5128   -2.6511    9.6068 H         1 <0>         0.0562 
      57 H26       -3.9190   -2.2253    7.8949 H         1 <0>         0.1014 
      58 H27       -1.9640    2.0277    2.5843 H         1 <0>         0.0471 
      59 H28       -2.4575    0.7523    3.7188 H         1 <0>         0.0943 
      60 H29       -2.5483   -0.9135    1.8989 H         1 <0>         0.0999 
      61 H30       -3.5609    0.5034    1.4938 H         1 <0>         0.0621 
      62 H31       -0.3678   -1.1250    0.7317 H         1 <0>         0.0991 
      63 H32        0.0703    0.1698   -0.4179 H         1 <0>         0.0615 
      64 H33        0.3425    1.8013    1.4058 H         1 <0>         0.0908 
      65 H34        1.3292    0.3454    1.7601 H         1 <0>         0.0448 
@<TRIPOS>BOND
       1        1        2 1        
       2        1       32 1        
       3        1       33 1        
       4        1       34 1        
       5        2        3 1        
       6        2        4 1        
       7        2        5 1        
       8        3       35 1        
       9        3       36 1        
      10        3       37 1        
      11        4       38 1        
      12        4       39 1        
      13        4       40 1        
      14        5        9 1        
      15        5        6 1        
      16        6        7 2        
      17        6       13 1        
      18        7        8 1        
      19        7       41 1        
      20        8        9 2        
      21        8       10 1        
      22       10       12 1        
      23       10       11 1        
      24       10       42 1        
      25       11       12 1        
      26       11       43 1        
      27       11       44 1        
      28       12       45 1        
      29       12       46 1        
      30       13       14 2        
      31       13       15 am       
      32       15       16 1        
      33       15       47 1        
      34       16       17 1        
      35       16       48 1        
      36       16       49 1        
      37       17       18 1        
      38       17       26 1        
      39       17       50 1        
      40       18       23 ar       
      41       18       19 ar       
      42       19       20 ar       
      43       19       51 1        
      44       20       21 ar       
      45       20       52 1        
      46       21       22 ar       
      47       21       24 1        
      48       22       23 ar       
      49       22       53 1        
      50       23       54 1        
      51       24       25 1        
      52       25       55 1        
      53       25       56 1        
      54       25       57 1        
      55       26       31 1        
      56       26       27 1        
      57       27       28 1        
      58       27       58 1        
      59       27       59 1        
      60       28       29 1        
      61       28       60 1        
      62       28       61 1        
      63       29       30 1        
      64       30       31 1        
      65       30       62 1        
      66       30       63 1        
      67       31       64 1        
      68       31       65 1        

