#        1GCZ_R01_S0001_C0000_L00008_S0001_C0005_G0010_E0001.mol2
#        Tue Jun  6 09:57:10 2017
#        Descriptor:      2    14     1     7    10    15
#        Energy - RMSD - RMSD MassCentre:     -74.3075    999.9999    999.9999
#        Receptor:       1  Surface Point:     1  Conformer:     0
#        Ligand:         8  Surface Point:     1  Conformer:     5
#        BUDE Formal Charge: 0
#        ATOM Count: 65
#        Heavy ATOM Count: 31
@<TRIPOS>MOLECULE
ZINC61400536_1GCZ_R01_S0001_C0000_L00008_S0001_C0005_G0010_E0001
 65 68 0 0 0
SMALL
USER_CHARGES
@<TRIPOS>ATOM
       1 C1        -1.0086    7.3199    9.1903 C.3       1 <0>        -0.1457 
       2 C2        -0.1765    6.0647    9.5895 C.3       1 <0>         0.1768 
       3 C3         1.0062    5.8182    8.5912 C.3       1 <0>        -0.1798 
       4 C4         0.4876    6.3215   10.9858 C.3       1 <0>        -0.1802 
       5 N1        -1.0926    4.9257    9.7208 N.pl3     1 <0>        -0.2386 
       6 C5        -1.3542    3.9698    8.8654 C.2       1 <0>        -0.0401 
       7 C6        -2.2031    3.1068    9.4396 C.2       1 <0>        -0.1820 
       8 C7        -2.4452    3.6143   10.7777 C.2       1 <0>         0.0520 
       9 N2        -1.7576    4.6714   10.8674 N.2       1 <0>        -0.2594 
      10 C8        -3.3117    3.0607   11.8760 C.3       1 <0>        -0.0741 
      11 C9        -3.4571    1.5229   11.9599 C.3       1 <0>        -0.1663 
      12 C10       -4.6380    2.3831   11.4576 C.3       1 <0>        -0.1657 
      13 C11       -0.9019    3.7506    7.4738 C.2       1 <0>         0.5920 
      14 O1        -0.1640    4.5708    6.9536 O.2       1 <0>        -0.5202 
      15 N3        -1.3558    2.6858    6.7640 N.am      1 <0>        -0.7096 
      16 C12       -0.9067    2.4831    5.3918 C.3       1 <0>         0.1269 
      17 C13       -1.5359    1.2652    4.6515 C.3       1 <0>         0.1209 
      18 C14       -1.0577    0.0432    5.4711 C.ar      1 <0>        -0.1261 
      19 C15        0.2897   -0.3331    5.4600 C.ar      1 <0>        -0.0471 
      20 C16        0.7160   -1.4314    6.2105 C.ar      1 <0>        -0.1526 
      21 C17       -0.1768   -2.1619    7.0004 C.ar      1 <0>         0.1329 
      22 C18       -1.5218   -1.7911    7.0022 C.ar      1 <0>        -0.2055 
      23 C19       -1.9585   -0.6992    6.2443 C.ar      1 <0>        -0.0791 
      24 O2         0.3141   -3.2545    7.7416 O.3       1 <0>        -0.3169 
      25 C20        1.4025   -4.0605    7.2571 C.3       1 <0>         0.0263 
      26 N4        -1.0399    1.0245    3.2677 N.3       1 <0>        -0.5235 
      27 C21       -1.6539   -0.1657    2.5944 C.3       1 <0>         0.0085 
      28 C22       -0.9894   -0.4391    1.2213 C.3       1 <0>         0.0643 
      29 O3        -1.0912    0.7340    0.3977 O.3       1 <0>        -0.3844 
      30 C23       -0.4444    1.8678    0.9908 C.3       1 <0>         0.0641 
      31 C24       -1.0822    2.1995    2.3646 C.3       1 <0>         0.0200 
      32 H1        -1.8075    7.5000    9.9290 H         1 <0>         0.0684 
      33 H2        -1.4641    7.1692    8.1973 H         1 <0>         0.0673 
      34 H3        -0.3575    8.2055    9.1489 H         1 <0>         0.0762 
      35 H4         0.6180    5.6193    7.5781 H         1 <0>         0.0772 
      36 H5         1.6634    6.7032    8.5573 H         1 <0>         0.1076 
      37 H6         1.6163    4.9473    8.8668 H         1 <0>         0.0533 
      38 H7         1.0930    5.4518   11.2932 H         1 <0>         0.0541 
      39 H8        -0.2884    6.5020   11.7489 H         1 <0>         0.1047 
      40 H9         1.1481    7.2036   10.9400 H         1 <0>         0.0783 
      41 H10       -2.6464    2.2081    9.0096 H         1 <0>         0.1546 
      42 H11       -3.3462    3.5881   12.8448 H         1 <0>         0.1185 
      43 H12       -2.9253    0.9268   11.2001 H         1 <0>         0.0960 
      44 H13       -3.5362    1.0918   12.9722 H         1 <0>         0.1015 
      45 H14       -4.8592    2.3390   10.3784 H         1 <0>         0.1002 
      46 H15       -5.4933    2.5141   12.1419 H         1 <0>         0.0943 
      47 H16       -1.9984    2.0477    7.1844 H         1 <0>         0.4026 
      48 H17        0.1891    2.3367    5.3969 H         1 <0>         0.0820 
      49 H18       -1.1449    3.3780    4.7901 H         1 <0>         0.0826 
      50 H19       -2.6361    1.3695    4.6607 H         1 <0>         0.0584 
      51 H20        1.0122    0.2226    4.8692 H         1 <0>         0.1381 
      52 H21        1.7619   -1.7240    6.1995 H         1 <0>         0.1314 
      53 H22       -2.2588   -2.3322    7.5851 H         1 <0>         0.1295 
      54 H23       -3.0103   -0.4274    6.2567 H         1 <0>         0.1215 
      55 H24        2.2955   -3.4273    7.1335 H         1 <0>         0.0567 
      56 H25        1.6346   -4.8583    7.9824 H         1 <0>         0.0562 
      57 H26        1.1446   -4.4971    6.2776 H         1 <0>         0.1014 
      58 H27       -2.7327   -0.0082    2.4139 H         1 <0>         0.0471 
      59 H28       -1.5553   -1.0920    3.1860 H         1 <0>         0.0943 
      60 H29        0.0694   -0.7212    1.3646 H         1 <0>         0.0999 
      61 H30       -1.4966   -1.2679    0.6969 H         1 <0>         0.0621 
      62 H31        0.6384    1.6816    1.1103 H         1 <0>         0.0991 
      63 H32       -0.5673    2.7239    0.3043 H         1 <0>         0.0615 
      64 H33       -2.1281    2.5112    2.1965 H         1 <0>         0.0908 
      65 H34       -0.5280    3.0481    2.8048 H         1 <0>         0.0448 
@<TRIPOS>BOND
       1        1        2 1        
       2        1       32 1        
       3        1       33 1        
       4        1       34 1        
       5        2        3 1        
       6        2        4 1        
       7        2        5 1        
       8        3       35 1        
       9        3       36 1        
      10        3       37 1        
      11        4       38 1        
      12        4       39 1        
      13        4       40 1        
      14        5        9 1        
      15        5        6 1        
      16        6        7 2        
      17        6       13 1        
      18        7        8 1        
      19        7       41 1        
      20        8        9 2        
      21        8       10 1        
      22       10       12 1        
      23       10       11 1        
      24       10       42 1        
      25       11       12 1        
      26       11       43 1        
      27       11       44 1        
      28       12       45 1        
      29       12       46 1        
      30       13       14 2        
      31       13       15 am       
      32       15       16 1        
      33       15       47 1        
      34       16       17 1        
      35       16       48 1        
      36       16       49 1        
      37       17       18 1        
      38       17       26 1        
      39       17       50 1        
      40       18       23 ar       
      41       18       19 ar       
      42       19       20 ar       
      43       19       51 1        
      44       20       21 ar       
      45       20       52 1        
      46       21       22 ar       
      47       21       24 1        
      48       22       23 ar       
      49       22       53 1        
      50       23       54 1        
      51       24       25 1        
      52       25       55 1        
      53       25       56 1        
      54       25       57 1        
      55       26       31 1        
      56       26       27 1        
      57       27       28 1        
      58       27       58 1        
      59       27       59 1        
      60       28       29 1        
      61       28       60 1        
      62       28       61 1        
      63       29       30 1        
      64       30       31 1        
      65       30       62 1        
      66       30       63 1        
      67       31       64 1        
      68       31       65 1        

