#        1GCZ_R01_S0001_C0000_L00003_S0001_C0007_G0010_E0001.mol2
#        Tue Jun  6 09:54:41 2017
#        Descriptor:     19    18     8    11     7    13
#        Energy - RMSD - RMSD MassCentre:     -56.9052    999.9999    999.9999
#        Receptor:       1  Surface Point:     1  Conformer:     0
#        Ligand:         3  Surface Point:     1  Conformer:     7
#        BUDE Formal Charge: 0
#        ATOM Count: 58
#        Heavy ATOM Count: 30
@<TRIPOS>MOLECULE
ZINC61580633_1GCZ_R01_S0001_C0000_L00003_S0001_C0007_G0010_E0001
 58 59 0 0 0
SMALL
USER_CHARGES
@<TRIPOS>ATOM
       1 C1         9.7559   -2.0683    3.6656 C.3       1 <0>        -0.1532 
       2 C2         8.7070   -2.5002    2.6448 C.3       1 <0>        -0.1224 
       3 C3         7.3131   -2.1743    3.1792 C.3       1 <0>        -0.1198 
       4 C4         7.0776   -2.9356    4.4830 C.3       1 <0>         0.0610 
       5 O1         5.7731   -2.6306    4.9831 O.3       1 <0>        -0.3878 
       6 C5         5.4954   -3.3170    6.2064 C.3       1 <0>         0.0487 
       7 C6         4.0923   -2.9509    6.6878 C.3       1 <0>         0.1244 
       8 N1         4.0904   -1.5667    7.1822 N.am      1 <0>        -0.7216 
       9 C7         4.6873   -1.2714    8.3336 C.2       1 <0>         0.5161 
      10 O2         5.2406   -2.1558    8.9849 O.2       1 <0>        -0.5151 
      11 C8         4.6854    0.1506    8.8415 C.3       1 <0>         0.0490 
      12 O3         3.3611    0.5106    9.2432 O.3       1 <0>        -0.3194 
      13 C9         2.3959    0.5282    8.2995 C.2       1 <0>         0.5417 
      14 O4         2.6656    0.2423    7.1445 O.2       1 <0>        -0.5337 
      15 C10        1.0097    0.8944    8.6662 C.2       1 <0>        -0.2559 
      16 C11        0.5717    1.2443   10.0360 C.2       1 <0>        -0.0791 
      17 C12       -0.7328    1.5214   10.0977 C.2       1 <0>        -0.2585 
      18 S1        -1.5334    1.3912    8.5247 S.3       1 <0>         0.3028 
      19 C13        0.0052    0.9317    7.7802 C.2       1 <0>         0.0893 
      20 N2         0.1885    0.6306    6.4564 N.am      1 <0>        -0.6099 
      21 C14       -0.8391    0.6812    5.6135 C.2       1 <0>         0.5551 
      22 O5        -1.9547    0.9986    6.0228 O.2       1 <0>        -0.4939 
      23 C15       -0.6394    0.3557    4.1837 C.ar      1 <0>        -0.1466 
      24 C16       -1.7490    0.4187    3.3323 C.ar      1 <0>        -0.0772 
      25 C17       -1.6387    0.0513    1.9859 C.ar      1 <0>        -0.1241 
      26 C18       -0.4178   -0.3962    1.4680 C.ar      1 <0>        -0.0446 
      27 C19        0.7055   -0.4097    2.3035 C.ar      1 <0>        -0.1261 
      28 C20        0.5976   -0.0136    3.6419 C.ar      1 <0>        -0.0460 
      29 C21       -0.3342   -0.8469    0.0291 C.3       1 <0>        -0.0928 
      30 C22       -0.6217   -2.3433   -0.0518 C.3       1 <0>        -0.1485 
      31 H1         9.5999   -2.6098    4.5963 H         1 <0>         0.0567 
      32 H2         9.6652   -0.9996    3.8477 H         1 <0>         0.0554 
      33 H3        10.7490   -2.2881    3.2794 H         1 <0>         0.0557 
      34 H4         8.8697   -1.9685    1.7096 H         1 <0>         0.0632 
      35 H5         8.7873   -3.5714    2.4723 H         1 <0>         0.0635 
      36 H6         7.2361   -1.1052    3.3653 H         1 <0>         0.0711 
      37 H7         6.5649   -2.4704    2.4469 H         1 <0>         0.0704 
      38 H8         7.1535   -4.0051    4.2980 H         1 <0>         0.0498 
      39 H9         7.8248   -2.6397    5.2164 H         1 <0>         0.0505 
      40 H10        6.2241   -3.0258    6.9600 H         1 <0>         0.0584 
      41 H11        5.5529   -4.3910    6.0415 H         1 <0>         0.0702 
      42 H12        3.7970   -3.6226    7.4910 H         1 <0>         0.0872 
      43 H13        3.3899   -3.0413    5.8619 H         1 <0>         0.0805 
      44 H14        3.6363   -0.8396    6.6482 H         1 <0>         0.4058 
      45 H15        5.3570    0.2330    9.6934 H         1 <0>         0.1008 
      46 H16        5.0182    0.8193    8.0504 H         1 <0>         0.0999 
      47 H17        1.2513    1.2773   10.8746 H         1 <0>         0.1557 
      48 H18       -1.2279    1.8060   11.0142 H         1 <0>         0.1929 
      49 H19        1.1045    0.3700    6.1203 H         1 <0>         0.4317 
      50 H20       -2.7023    0.7497    3.7169 H         1 <0>         0.1287 
      51 H21       -2.5001    0.1099    1.3372 H         1 <0>         0.1326 
      52 H22        1.6562   -0.7258    1.9000 H         1 <0>         0.1342 
      53 H23        1.5084    0.0118    4.2216 H         1 <0>         0.1410 
      54 H24        0.6639   -0.6474   -0.3553 H         1 <0>         0.0777 
      55 H25       -1.0670   -0.3035   -0.5636 H         1 <0>         0.0771 
      56 H26       -1.6246   -2.5399    0.3212 H         1 <0>         0.0623 
      57 H27        0.1032   -2.8845    0.5527 H         1 <0>         0.0572 
      58 H28       -0.5483   -2.6705   -1.0868 H         1 <0>         0.0578 
@<TRIPOS>BOND
       1        1        2 1        
       2        1       31 1        
       3        1       32 1        
       4        1       33 1        
       5        2        3 1        
       6        2       34 1        
       7        2       35 1        
       8        3        4 1        
       9        3       36 1        
      10        3       37 1        
      11        4        5 1        
      12        4       38 1        
      13        4       39 1        
      14        5        6 1        
      15        6        7 1        
      16        6       40 1        
      17        6       41 1        
      18        7        8 1        
      19        7       42 1        
      20        7       43 1        
      21        8        9 am       
      22        8       44 1        
      23        9       10 2        
      24        9       11 1        
      25       11       12 1        
      26       11       45 1        
      27       11       46 1        
      28       12       13 1        
      29       13       14 2        
      30       13       15 1        
      31       15       19 2        
      32       15       16 1        
      33       16       17 2        
      34       16       47 1        
      35       17       18 1        
      36       17       48 1        
      37       18       19 1        
      38       19       20 1        
      39       20       21 am       
      40       20       49 1        
      41       21       22 2        
      42       21       23 1        
      43       23       28 ar       
      44       23       24 ar       
      45       24       25 ar       
      46       24       50 1        
      47       25       26 ar       
      48       25       51 1        
      49       26       27 ar       
      50       26       29 1        
      51       27       28 ar       
      52       27       52 1        
      53       28       53 1        
      54       29       30 1        
      55       29       54 1        
      56       29       55 1        
      57       30       56 1        
      58       30       57 1        
      59       30       58 1        

