#        1GCZ_R01_S0001_C0000_L00008_S0001_C0006_G0010_E0001.mol2
#        Tue Jun  6 09:57:11 2017
#        Descriptor:     22    13    29    13     8    13
#        Energy - RMSD - RMSD MassCentre:     -67.0958    999.9999    999.9999
#        Receptor:       1  Surface Point:     1  Conformer:     0
#        Ligand:         8  Surface Point:     1  Conformer:     6
#        BUDE Formal Charge: 0
#        ATOM Count: 65
#        Heavy ATOM Count: 31
@<TRIPOS>MOLECULE
ZINC61400536_1GCZ_R01_S0001_C0000_L00008_S0001_C0006_G0010_E0001
 65 68 0 0 0
SMALL
USER_CHARGES
@<TRIPOS>ATOM
       1 C1        -0.2980   -0.2381    4.8103 C.3       1 <0>        -0.1457 
       2 C2         0.4493    0.8096    3.9321 C.3       1 <0>         0.1768 
       3 C3         1.1596    0.1329    2.7099 C.3       1 <0>        -0.1798 
       4 C4        -0.6016    1.8001    3.3226 C.3       1 <0>        -0.1802 
       5 N1         1.3534    1.5767    4.7969 N.pl3     1 <0>        -0.2386 
       6 C5         2.6404    1.4302    4.9876 C.2       1 <0>        -0.0401 
       7 C6         3.0605    2.3996    5.8116 C.2       1 <0>        -0.1820 
       8 C7         1.8892    3.2005    6.1169 C.2       1 <0>         0.0520 
       9 N2         0.9373    2.6620    5.4829 N.2       1 <0>        -0.2594 
      10 C8         1.7562    4.4196    6.9886 C.3       1 <0>        -0.0741 
      11 C9         1.5652    5.7819    6.2810 C.3       1 <0>        -0.1663 
      12 C10        2.9145    5.4445    6.9537 C.3       1 <0>        -0.1657 
      13 C11        3.5957    0.4186    4.4844 C.2       1 <0>         0.5920 
      14 O1         3.1854   -0.4816    3.7708 O.2       1 <0>        -0.5202 
      15 N3         4.8981    0.4544    4.8662 N.am      1 <0>        -0.7096 
      16 C12        5.8290   -0.5508    4.3675 C.3       1 <0>         0.1269 
      17 C13        7.2837   -0.4511    4.9162 C.3       1 <0>         0.1209 
      18 C14        8.0642   -1.5062    4.0967 C.ar      1 <0>        -0.1261 
      19 C15        7.8234   -2.8709    4.2881 C.ar      1 <0>        -0.0471 
      20 C16        8.5245   -3.8174    3.5375 C.ar      1 <0>        -0.1526 
      21 C17        9.4582   -3.4313    2.5712 C.ar      1 <0>         0.1329 
      22 C18        9.7041   -2.0701    2.3889 C.ar      1 <0>        -0.2055 
      23 C19        9.0141   -1.1163    3.1449 C.ar      1 <0>        -0.0791 
      24 O2        10.1277   -4.4319    1.8400 O.3       1 <0>        -0.3169 
      25 C20        9.4870   -5.6779    1.5142 C.3       1 <0>         0.0263 
      26 N4         7.4654   -0.8507    6.3396 N.3       1 <0>        -0.5235 
      27 C21        8.8801   -0.7596    6.8265 C.3       1 <0>         0.0085 
      28 C22        9.0173   -1.3249    8.2628 C.3       1 <0>         0.0643 
      29 O3         8.1195   -0.6261    9.1406 O.3       1 <0>        -0.3844 
      30 C23        6.7515   -0.7629    8.7338 C.3       1 <0>         0.0641 
      31 C24        6.5506   -0.1956    7.3049 C.3       1 <0>         0.0200 
      32 H1        -0.8260    0.2638    5.6384 H         1 <0>         0.0684 
      33 H2         0.4223   -0.9608    5.2284 H         1 <0>         0.0673 
      34 H3        -1.0326   -0.7847    4.2007 H         1 <0>         0.0762 
      35 H4         1.9270   -0.5787    3.0581 H         1 <0>         0.0772 
      36 H5         0.4208   -0.4073    2.0945 H         1 <0>         0.1076 
      37 H6         1.6770    0.8586    2.0679 H         1 <0>         0.0533 
      38 H7        -0.1032    2.5511    2.6863 H         1 <0>         0.0541 
      39 H8        -1.1452    2.3216    4.1285 H         1 <0>         0.1047 
      40 H9        -1.3313    1.2518    2.7034 H         1 <0>         0.0783 
      41 H10        4.0659    2.5681    6.1990 H         1 <0>         0.1546 
      42 H11        1.2511    4.3240    7.9652 H         1 <0>         0.1185 
      43 H12        1.5509    5.7767    5.1786 H         1 <0>         0.0960 
      44 H13        0.9120    6.5115    6.7888 H         1 <0>         0.1015 
      45 H14        3.7605    5.2215    6.2828 H         1 <0>         0.1002 
      46 H15        3.1461    5.9557    7.9033 H         1 <0>         0.0943 
      47 H16        5.2120    1.1678    5.4902 H         1 <0>         0.4026 
      48 H17        5.8844   -0.4655    3.2667 H         1 <0>         0.0820 
      49 H18        5.4591   -1.5579    4.6297 H         1 <0>         0.0826 
      50 H19        7.6617    0.5734    4.7456 H         1 <0>         0.0584 
      51 H20        7.0932   -3.2042    5.0199 H         1 <0>         0.1381 
      52 H21        8.3383   -4.8769    3.6885 H         1 <0>         0.1314 
      53 H22       10.4285   -1.7166    1.6638 H         1 <0>         0.1295 
      54 H23        9.2214   -0.0612    2.9902 H         1 <0>         0.1215 
      55 H24        8.5971   -5.4770    0.8964 H         1 <0>         0.0567 
      56 H25       10.1765   -6.3190    0.9398 H         1 <0>         0.0562 
      57 H26        9.1649   -6.1913    2.4356 H         1 <0>         0.1014 
      58 H27        9.2261    0.2898    6.8498 H         1 <0>         0.0471 
      59 H28        9.5889   -1.3213    6.1940 H         1 <0>         0.0943 
      60 H29        8.7963   -2.4076    8.2644 H         1 <0>         0.0999 
      61 H30       10.0440   -1.1845    8.6444 H         1 <0>         0.0621 
      62 H31        6.4374   -1.8220    8.7691 H         1 <0>         0.0991 
      63 H32        6.1282   -0.2005    9.4511 H         1 <0>         0.0615 
      64 H33        6.7430    0.8914    7.3318 H         1 <0>         0.0908 
      65 H34        5.4971   -0.3599    7.0149 H         1 <0>         0.0448 
@<TRIPOS>BOND
       1        1        2 1        
       2        1       32 1        
       3        1       33 1        
       4        1       34 1        
       5        2        3 1        
       6        2        4 1        
       7        2        5 1        
       8        3       35 1        
       9        3       36 1        
      10        3       37 1        
      11        4       38 1        
      12        4       39 1        
      13        4       40 1        
      14        5        9 1        
      15        5        6 1        
      16        6        7 2        
      17        6       13 1        
      18        7        8 1        
      19        7       41 1        
      20        8        9 2        
      21        8       10 1        
      22       10       12 1        
      23       10       11 1        
      24       10       42 1        
      25       11       12 1        
      26       11       43 1        
      27       11       44 1        
      28       12       45 1        
      29       12       46 1        
      30       13       14 2        
      31       13       15 am       
      32       15       16 1        
      33       15       47 1        
      34       16       17 1        
      35       16       48 1        
      36       16       49 1        
      37       17       18 1        
      38       17       26 1        
      39       17       50 1        
      40       18       23 ar       
      41       18       19 ar       
      42       19       20 ar       
      43       19       51 1        
      44       20       21 ar       
      45       20       52 1        
      46       21       22 ar       
      47       21       24 1        
      48       22       23 ar       
      49       22       53 1        
      50       23       54 1        
      51       24       25 1        
      52       25       55 1        
      53       25       56 1        
      54       25       57 1        
      55       26       31 1        
      56       26       27 1        
      57       27       28 1        
      58       27       58 1        
      59       27       59 1        
      60       28       29 1        
      61       28       60 1        
      62       28       61 1        
      63       29       30 1        
      64       30       31 1        
      65       30       62 1        
      66       30       63 1        
      67       31       64 1        
      68       31       65 1        

