#        1GCZ_R01_S0001_C0000_L00008_S0001_C0006_G0010_E0001.mol2
#        Tue Jun  6 14:09:39 2017
#        Descriptor:      9    14    23    13     9    14
#        Energy - RMSD - RMSD MassCentre:     -66.6438    999.9999    999.9999
#        Receptor:       1  Surface Point:     1  Conformer:     0
#        Ligand:         8  Surface Point:     1  Conformer:     6
#        BUDE Formal Charge: 0
#        ATOM Count: 65
#        Heavy ATOM Count: 31
@<TRIPOS>MOLECULE
ZINC61400536_1GCZ_R01_S0001_C0000_L00008_S0001_C0006_G0010_E0001
 65 68 0 0 0
SMALL
USER_CHARGES
@<TRIPOS>ATOM
       1 C1         9.9542    0.2489    4.2527 C.3       1 <0>        -0.1457 
       2 C2         9.3565   -0.7411    5.2967 C.3       1 <0>         0.1768 
       3 C3         8.3007   -1.6971    4.6430 C.3       1 <0>        -0.1798 
       4 C4        10.5030   -1.6681    5.8285 C.3       1 <0>        -0.1802 
       5 N1         8.8362    0.0376    6.4267 N.pl3     1 <0>        -0.2386 
       6 C5         7.6060    0.4043    6.6837 C.2       1 <0>        -0.0401 
       7 C6         7.5907    1.0432    7.8614 C.2       1 <0>        -0.1820 
       8 C7         8.9604    1.0299    8.3414 C.2       1 <0>         0.0520 
       9 N2         9.6232    0.4202    7.4542 N.2       1 <0>        -0.2594 
      10 C8         9.5431    1.5967    9.6074 C.3       1 <0>        -0.0741 
      11 C9         9.9475    0.5947   10.7145 C.3       1 <0>        -0.1663 
      12 C10        8.6921    1.4772   10.8938 C.3       1 <0>        -0.1657 
      13 C11        6.3552    0.2460    5.9094 C.2       1 <0>         0.5920 
      14 O1         6.3973   -0.2997    4.8193 O.2       1 <0>        -0.5202 
      15 N3         5.1887    0.7605    6.3765 N.am      1 <0>        -0.7096 
      16 C12        3.9636    0.6023    5.6021 C.3       1 <0>         0.1269 
      17 C13        2.6967    1.2826    6.2017 C.3       1 <0>         0.1209 
      18 C14        1.5474    0.8066    5.2815 C.ar      1 <0>        -0.1261 
      19 C15        1.4656    1.2582    3.9600 C.ar      1 <0>        -0.0471 
      20 C16        0.4311    0.8163    3.1321 C.ar      1 <0>        -0.1526 
      21 C17       -0.5260   -0.0947    3.5888 C.ar      1 <0>         0.1329 
      22 C18       -0.4484   -0.5361    4.9101 C.ar      1 <0>        -0.2055 
      23 C19        0.5783   -0.0893    5.7489 C.ar      1 <0>        -0.0791 
      24 O2        -1.5407   -0.5098    2.7045 O.3       1 <0>        -0.3169 
      25 C20       -1.3000   -0.6319    1.2916 C.3       1 <0>         0.0263 
      26 N4         2.6659    2.7699    6.1261 N.3       1 <0>        -0.5235 
      27 C21        1.4243    3.3874    6.6954 C.3       1 <0>         0.0085 
      28 C22        1.3964    4.9178    6.4533 C.3       1 <0>         0.0643 
      29 O3         2.5776    5.5134    7.0146 O.3       1 <0>        -0.3844 
      30 C23        3.7768    4.9888    6.4294 C.3       1 <0>         0.0641 
      31 C24        3.8672    3.4577    6.6568 C.3       1 <0>         0.0200 
      32 H1        10.7250    0.8819    4.7235 H         1 <0>         0.0684 
      33 H2         9.1573    0.8942    3.8469 H         1 <0>         0.0673 
      34 H3        10.4122   -0.3100    3.4233 H         1 <0>         0.0762 
      35 H4         7.4498   -1.1166    4.2486 H         1 <0>         0.0772 
      36 H5         8.7633   -2.2636    3.8175 H         1 <0>         0.1076 
      37 H6         7.8811   -2.4156    5.3601 H         1 <0>         0.0533 
      38 H7        10.1089   -2.3887    6.5652 H         1 <0>         0.0541 
      39 H8        11.2898   -1.0626    6.3095 H         1 <0>         0.1047 
      40 H9        10.9542   -2.2354    4.9972 H         1 <0>         0.0783 
      41 H10        6.7417    1.4998    8.3711 H         1 <0>         0.1546 
      42 H11       10.1669    2.5051    9.5470 H         1 <0>         0.1185 
      43 H12        9.7716   -0.4746   10.5117 H         1 <0>         0.0960 
      44 H13       10.8403    0.8535   11.3085 H         1 <0>         0.1015 
      45 H14        7.7155    0.9735   10.8033 H         1 <0>         0.1002 
      46 H15        8.7624    2.3147   11.6083 H         1 <0>         0.0943 
      47 H16        5.1760    1.2483    7.2476 H         1 <0>         0.4026 
      48 H17        3.7443   -0.4768    5.5046 H         1 <0>         0.0820 
      49 H18        4.1068    1.0303    4.5942 H         1 <0>         0.0826 
      50 H19        2.5656    0.9405    7.2444 H         1 <0>         0.0584 
      51 H20        2.2021    1.9542    3.5690 H         1 <0>         0.1381 
      52 H21        0.3672    1.1694    2.1068 H         1 <0>         0.1314 
      53 H22       -1.1731   -1.2308    5.3197 H         1 <0>         0.1295 
      54 H23        0.6204   -0.4426    6.7755 H         1 <0>         0.1215 
      55 H24       -0.5072   -1.3780    1.1222 H         1 <0>         0.0567 
      56 H25       -2.2164   -0.9701    0.7795 H         1 <0>         0.0562 
      57 H26       -0.9653    0.3345    0.8787 H         1 <0>         0.1014 
      58 H27        1.3633    3.2242    7.7867 H         1 <0>         0.0471 
      59 H28        0.4997    2.9780    6.2535 H         1 <0>         0.0943 
      60 H29        1.3344    5.1269    5.3699 H         1 <0>         0.0999 
      61 H30        0.5190    5.3773    6.9414 H         1 <0>         0.0621 
      62 H31        3.8151    5.2146    5.3481 H         1 <0>         0.0991 
      63 H32        4.6347    5.4902    6.9110 H         1 <0>         0.0615 
      64 H33        3.9625    3.2720    7.7411 H         1 <0>         0.0908 
      65 H34        4.7798    3.0890    6.1546 H         1 <0>         0.0448 
@<TRIPOS>BOND
       1        1        2 1        
       2        1       32 1        
       3        1       33 1        
       4        1       34 1        
       5        2        3 1        
       6        2        4 1        
       7        2        5 1        
       8        3       35 1        
       9        3       36 1        
      10        3       37 1        
      11        4       38 1        
      12        4       39 1        
      13        4       40 1        
      14        5        9 1        
      15        5        6 1        
      16        6        7 2        
      17        6       13 1        
      18        7        8 1        
      19        7       41 1        
      20        8        9 2        
      21        8       10 1        
      22       10       12 1        
      23       10       11 1        
      24       10       42 1        
      25       11       12 1        
      26       11       43 1        
      27       11       44 1        
      28       12       45 1        
      29       12       46 1        
      30       13       14 2        
      31       13       15 am       
      32       15       16 1        
      33       15       47 1        
      34       16       17 1        
      35       16       48 1        
      36       16       49 1        
      37       17       18 1        
      38       17       26 1        
      39       17       50 1        
      40       18       23 ar       
      41       18       19 ar       
      42       19       20 ar       
      43       19       51 1        
      44       20       21 ar       
      45       20       52 1        
      46       21       22 ar       
      47       21       24 1        
      48       22       23 ar       
      49       22       53 1        
      50       23       54 1        
      51       24       25 1        
      52       25       55 1        
      53       25       56 1        
      54       25       57 1        
      55       26       31 1        
      56       26       27 1        
      57       27       28 1        
      58       27       58 1        
      59       27       59 1        
      60       28       29 1        
      61       28       60 1        
      62       28       61 1        
      63       29       30 1        
      64       30       31 1        
      65       30       62 1        
      66       30       63 1        
      67       31       64 1        
      68       31       65 1        

