#        1GCZ_R01_S0001_C0000_L00008_S0001_C0007_G0010_E0001.mol2
#        Tue Jun  6 09:57:12 2017
#        Descriptor:     23     2     5    11     8    14
#        Energy - RMSD - RMSD MassCentre:     -62.3999    999.9999    999.9999
#        Receptor:       1  Surface Point:     1  Conformer:     0
#        Ligand:         8  Surface Point:     1  Conformer:     7
#        BUDE Formal Charge: 0
#        ATOM Count: 65
#        Heavy ATOM Count: 31
@<TRIPOS>MOLECULE
ZINC61400536_1GCZ_R01_S0001_C0000_L00008_S0001_C0007_G0010_E0001
 65 68 0 0 0
SMALL
USER_CHARGES
@<TRIPOS>ATOM
       1 C1         7.7620   -2.8225    5.5670 C.3       1 <0>        -0.1457 
       2 C2         6.7044   -2.7615    6.7093 C.3       1 <0>         0.1768 
       3 C3         5.4427   -3.6274    6.3710 C.3       1 <0>        -0.1798 
       4 C4         7.3222   -3.3919    8.0046 C.3       1 <0>        -0.1802 
       5 N1         6.4031   -1.3518    6.9852 N.pl3     1 <0>        -0.2386 
       6 C5         5.3954   -0.6241    6.5742 C.2       1 <0>        -0.0401 
       7 C6         5.4940    0.5906    7.1310 C.2       1 <0>        -0.1820 
       8 C7         6.6809    0.5529    7.9656 C.2       1 <0>         0.0520 
       9 N2         7.1500   -0.6136    7.8330 N.2       1 <0>        -0.2594 
      10 C8         7.2859    1.6260    8.8293 C.3       1 <0>        -0.0741 
      11 C9         8.8254    1.6315    8.9820 C.3       1 <0>        -0.1663 
      12 C10        7.9348    1.1804   10.1611 C.3       1 <0>        -0.1657 
      13 C11        4.2841   -0.9263    5.6454 C.2       1 <0>         0.5920 
      14 O1         4.2363   -2.0235    5.1144 O.2       1 <0>        -0.5202 
      15 N3         3.3679    0.0273    5.3375 N.am      1 <0>        -0.7096 
      16 C12        2.2800   -0.2811    4.4172 C.3       1 <0>         0.1269 
      17 C13        1.3219    0.9026    4.0881 C.3       1 <0>         0.1209 
      18 C14        0.6786    1.2514    5.4512 C.ar      1 <0>        -0.1261 
      19 C15       -0.2579    0.3901    6.0329 C.ar      1 <0>        -0.0471 
      20 C16       -0.8270    0.7064    7.2686 C.ar      1 <0>        -0.1526 
      21 C17       -0.4648    1.8667    7.9594 C.ar      1 <0>         0.1329 
      22 C18        0.4618    2.7293    7.3729 C.ar      1 <0>        -0.2055 
      23 C19        1.0278    2.4249    6.1302 C.ar      1 <0>        -0.0791 
      24 O2        -1.0672    2.1275    9.2057 O.3       1 <0>        -0.3169 
      25 C20       -2.4199    1.7247    9.4834 C.3       1 <0>         0.0263 
      26 N4         0.1792    0.5774    3.1896 N.3       1 <0>        -0.5235 
      27 C21        0.5731   -0.1269    1.9265 C.3       1 <0>         0.0085 
      28 C22       -0.6727   -0.5605    1.1132 C.3       1 <0>         0.0643 
      29 O3        -1.4871    0.5902    0.8344 O.3       1 <0>        -0.3844 
      30 C23       -1.9367    1.2365    2.0327 C.3       1 <0>         0.0641 
      31 C24       -0.7280    1.7087    2.8811 C.3       1 <0>         0.0200 
      32 H1         8.6583   -2.2427    5.8442 H         1 <0>         0.0684 
      33 H2         7.3372   -2.4063    4.6383 H         1 <0>         0.0673 
      34 H3         8.0575   -3.8660    5.3830 H         1 <0>         0.0762 
      35 H4         4.9418   -3.2392    5.4682 H         1 <0>         0.0772 
      36 H5         5.7389   -4.6751    6.1957 H         1 <0>         0.1076 
      37 H6         4.6928   -3.6119    7.1735 H         1 <0>         0.0533 
      38 H7         6.5925   -3.3718    8.8318 H         1 <0>         0.0541 
      39 H8         8.2211   -2.8299    8.3099 H         1 <0>         0.1047 
      40 H9         7.6084   -4.4412    7.8214 H         1 <0>         0.0783 
      41 H10        4.8394    1.4518    6.9933 H         1 <0>         0.1546 
      42 H11        6.8089    2.6207    8.8561 H         1 <0>         0.1185 
      43 H12        9.3842    0.8393    8.4570 H         1 <0>         0.0960 
      44 H13        9.3075    2.6208    9.0581 H         1 <0>         0.1015 
      45 H14        7.9225    0.1015   10.3880 H         1 <0>         0.1002 
      46 H15        7.8351    1.8750   11.0121 H         1 <0>         0.0943 
      47 H16        3.4455    0.9374    5.7407 H         1 <0>         0.4026 
      48 H17        1.6670   -1.0909    4.8537 H         1 <0>         0.0820 
      49 H18        2.6979   -0.6279    3.4556 H         1 <0>         0.0826 
      50 H19        1.9151    1.7409    3.6796 H         1 <0>         0.0584 
      51 H20       -0.5497   -0.5273    5.5299 H         1 <0>         0.1381 
      52 H21       -1.5557    0.0381    7.7184 H         1 <0>         0.1314 
      53 H22        0.7667    3.6495    7.8584 H         1 <0>         0.1295 
      54 H23        1.7457    3.1104    5.6886 H         1 <0>         0.1215 
      55 H24       -2.4963    0.6290    9.3989 H         1 <0>         0.0567 
      56 H25       -2.6993    2.0188   10.5090 H         1 <0>         0.0562 
      57 H26       -3.1092    2.1812    8.7533 H         1 <0>         0.1014 
      58 H27        1.1586   -1.0384    2.1453 H         1 <0>         0.0471 
      59 H28        1.1871    0.5010    1.2584 H         1 <0>         0.0943 
      60 H29       -0.3577   -1.0490    0.1733 H         1 <0>         0.0999 
      61 H30       -1.2848   -1.2800    1.6848 H         1 <0>         0.0621 
      62 H31       -2.5898    2.0950    1.7919 H         1 <0>         0.0991 
      63 H32       -2.5344    0.5063    2.6061 H         1 <0>         0.0615 
      64 H33       -1.1117    2.1531    3.8163 H         1 <0>         0.0908 
      65 H34       -0.1937    2.4913    2.3124 H         1 <0>         0.0448 
@<TRIPOS>BOND
       1        1        2 1        
       2        1       32 1        
       3        1       33 1        
       4        1       34 1        
       5        2        3 1        
       6        2        4 1        
       7        2        5 1        
       8        3       35 1        
       9        3       36 1        
      10        3       37 1        
      11        4       38 1        
      12        4       39 1        
      13        4       40 1        
      14        5        9 1        
      15        5        6 1        
      16        6        7 2        
      17        6       13 1        
      18        7        8 1        
      19        7       41 1        
      20        8        9 2        
      21        8       10 1        
      22       10       12 1        
      23       10       11 1        
      24       10       42 1        
      25       11       12 1        
      26       11       43 1        
      27       11       44 1        
      28       12       45 1        
      29       12       46 1        
      30       13       14 2        
      31       13       15 am       
      32       15       16 1        
      33       15       47 1        
      34       16       17 1        
      35       16       48 1        
      36       16       49 1        
      37       17       18 1        
      38       17       26 1        
      39       17       50 1        
      40       18       23 ar       
      41       18       19 ar       
      42       19       20 ar       
      43       19       51 1        
      44       20       21 ar       
      45       20       52 1        
      46       21       22 ar       
      47       21       24 1        
      48       22       23 ar       
      49       22       53 1        
      50       23       54 1        
      51       24       25 1        
      52       25       55 1        
      53       25       56 1        
      54       25       57 1        
      55       26       31 1        
      56       26       27 1        
      57       27       28 1        
      58       27       58 1        
      59       27       59 1        
      60       28       29 1        
      61       28       60 1        
      62       28       61 1        
      63       29       30 1        
      64       30       31 1        
      65       30       62 1        
      66       30       63 1        
      67       31       64 1        
      68       31       65 1        

