#        1GCZ_R01_S0001_C0000_L00008_S0001_C0007_G0010_E0001.mol2
#        Tue Jun  6 14:09:42 2017
#        Descriptor:      5    14    27    10     9    14
#        Energy - RMSD - RMSD MassCentre:     -72.8160    999.9999    999.9999
#        Receptor:       1  Surface Point:     1  Conformer:     0
#        Ligand:         8  Surface Point:     1  Conformer:     7
#        BUDE Formal Charge: 0
#        ATOM Count: 65
#        Heavy ATOM Count: 31
@<TRIPOS>MOLECULE
ZINC61400536_1GCZ_R01_S0001_C0000_L00008_S0001_C0007_G0010_E0001
 65 68 0 0 0
SMALL
USER_CHARGES
@<TRIPOS>ATOM
       1 C1         7.4622    1.9927    5.9005 C.3       1 <0>        -0.1457 
       2 C2         6.6127    1.0071    6.7574 C.3       1 <0>         0.1768 
       3 C3         6.2029   -0.2626    5.9353 C.3       1 <0>        -0.1798 
       4 C4         7.4913    0.4835    7.9452 C.3       1 <0>        -0.1802 
       5 N1         5.4759    1.7455    7.3197 N.pl3     1 <0>        -0.2386 
       6 C5         4.2361    1.8012    6.9027 C.2       1 <0>        -0.0401 
       7 C6         3.5309    2.5447    7.7659 C.2       1 <0>        -0.1820 
       8 C7         4.4644    2.9491    8.8011 C.2       1 <0>         0.0520 
       9 N2         5.5735    2.4381    8.4740 N.2       1 <0>        -0.2594 
      10 C8         4.2381    3.7916   10.0269 C.3       1 <0>        -0.0741 
      11 C9         5.4138    4.6732   10.5103 C.3       1 <0>        -0.1663 
      12 C10        5.0216    3.4073   11.3043 C.3       1 <0>        -0.1657 
      13 C11        3.5791    1.2301    5.7064 C.2       1 <0>         0.5920 
      14 O1         4.2477    0.5931    4.9095 O.2       1 <0>        -0.5202 
      15 N3         2.2643    1.4685    5.4655 N.am      1 <0>        -0.7096 
      16 C12        1.6291    0.9041    4.2807 C.3       1 <0>         0.1269 
      17 C13        0.1343    1.2900    4.0709 C.3       1 <0>         0.1209 
      18 C14       -0.5827    0.6863    5.3018 C.ar      1 <0>        -0.1261 
      19 C15       -0.7464   -0.6983    5.4169 C.ar      1 <0>        -0.0471 
      20 C16       -1.3857   -1.2370    6.5358 C.ar      1 <0>        -0.1526 
      21 C17       -1.8541   -0.4192    7.5686 C.ar      1 <0>         0.1329 
      22 C18       -1.6988    0.9620    7.4472 C.ar      1 <0>        -0.2055 
      23 C19       -1.0695    1.5098    6.3241 C.ar      1 <0>        -0.0791 
      24 O2        -2.4832   -1.0216    8.6756 O.3       1 <0>        -0.3169 
      25 C20       -3.2605   -2.2236    8.5337 C.3       1 <0>         0.0263 
      26 N4        -0.5320    0.6730    2.8903 N.3       1 <0>        -0.5235 
      27 C21        0.2225    0.8359    1.6054 C.3       1 <0>         0.0085 
      28 C22       -0.4532    0.0496    0.4536 C.3       1 <0>         0.0643 
      29 O3        -1.8167    0.4813    0.3141 O.3       1 <0>        -0.3844 
      30 C23       -2.5765    0.2651    1.5106 C.3       1 <0>         0.0641 
      31 C24       -1.9541    1.0450    2.6973 C.3       1 <0>         0.0200 
      32 H1         7.7761    2.8567    6.5099 H         1 <0>         0.0684 
      33 H2         6.8693    2.3534    5.0435 H         1 <0>         0.0673 
      34 H3         8.3593    1.4829    5.5192 H         1 <0>         0.0762 
      35 H4         5.5696    0.0231    5.0785 H         1 <0>         0.0772 
      36 H5         7.1032   -0.7779    5.5611 H         1 <0>         0.1076 
      37 H6         5.6185   -0.9788    6.5286 H         1 <0>         0.0533 
      38 H7         6.9193   -0.2258    8.5674 H         1 <0>         0.0541 
      39 H8         7.8186    1.3266    8.5770 H         1 <0>         0.1047 
      40 H9         8.3850   -0.0363    7.5611 H         1 <0>         0.0783 
      41 H10        2.4759    2.8164    7.7182 H         1 <0>         0.1546 
      42 H11        3.2333    4.2103   10.2079 H         1 <0>         0.1185 
      43 H12        6.3511    4.6200    9.9323 H         1 <0>         0.0960 
      44 H13        5.1472    5.6506   10.9470 H         1 <0>         0.1015 
      45 H14        5.7056    2.5455   11.2321 H         1 <0>         0.1002 
      46 H15        4.4987    3.5560   12.2641 H         1 <0>         0.0943 
      47 H16        1.7387    2.0326    6.0999 H         1 <0>         0.4026 
      48 H17        1.6801   -0.1984    4.3439 H         1 <0>         0.0820 
      49 H18        2.1722    1.2358    3.3781 H         1 <0>         0.0826 
      50 H19        0.0499    2.3915    4.0372 H         1 <0>         0.0584 
      51 H20       -0.3803   -1.3630    4.6397 H         1 <0>         0.1381 
      52 H21       -1.5143   -2.3120    6.6232 H         1 <0>         0.1314 
      53 H22       -2.0567    1.6425    8.2115 H         1 <0>         0.1295 
      54 H23       -0.9602    2.5879    6.2466 H         1 <0>         0.1215 
      55 H24       -2.6147   -3.0296    8.1504 H         1 <0>         0.0567 
      56 H25       -3.6636   -2.5314    9.5130 H         1 <0>         0.0562 
      57 H26       -4.0819   -2.0616    7.8156 H         1 <0>         0.1014 
      58 H27        1.2569    0.4587    1.7009 H         1 <0>         0.0471 
      59 H28        0.2892    1.8874    1.2770 H         1 <0>         0.0943 
      60 H29        0.1022    0.2096   -0.4883 H         1 <0>         0.0999 
      61 H30       -0.4596   -1.0336    0.6676 H         1 <0>         0.0621 
      62 H31       -3.6287    0.5710    1.3657 H         1 <0>         0.0991 
      63 H32       -2.5650   -0.8176    1.7267 H         1 <0>         0.0615 
      64 H33       -2.5337    0.8132    3.6082 H         1 <0>         0.0908 
      65 H34       -2.0479    2.1255    2.4854 H         1 <0>         0.0448 
@<TRIPOS>BOND
       1        1        2 1        
       2        1       32 1        
       3        1       33 1        
       4        1       34 1        
       5        2        3 1        
       6        2        4 1        
       7        2        5 1        
       8        3       35 1        
       9        3       36 1        
      10        3       37 1        
      11        4       38 1        
      12        4       39 1        
      13        4       40 1        
      14        5        9 1        
      15        5        6 1        
      16        6        7 2        
      17        6       13 1        
      18        7        8 1        
      19        7       41 1        
      20        8        9 2        
      21        8       10 1        
      22       10       12 1        
      23       10       11 1        
      24       10       42 1        
      25       11       12 1        
      26       11       43 1        
      27       11       44 1        
      28       12       45 1        
      29       12       46 1        
      30       13       14 2        
      31       13       15 am       
      32       15       16 1        
      33       15       47 1        
      34       16       17 1        
      35       16       48 1        
      36       16       49 1        
      37       17       18 1        
      38       17       26 1        
      39       17       50 1        
      40       18       23 ar       
      41       18       19 ar       
      42       19       20 ar       
      43       19       51 1        
      44       20       21 ar       
      45       20       52 1        
      46       21       22 ar       
      47       21       24 1        
      48       22       23 ar       
      49       22       53 1        
      50       23       54 1        
      51       24       25 1        
      52       25       55 1        
      53       25       56 1        
      54       25       57 1        
      55       26       31 1        
      56       26       27 1        
      57       27       28 1        
      58       27       58 1        
      59       27       59 1        
      60       28       29 1        
      61       28       60 1        
      62       28       61 1        
      63       29       30 1        
      64       30       31 1        
      65       30       62 1        
      66       30       63 1        
      67       31       64 1        
      68       31       65 1        

