#        1GCZ_R01_S0001_C0000_L00008_S0001_C0008_G0010_E0001.mol2
#        Tue Jun  6 09:57:13 2017
#        Descriptor:      2    14     1     7    10    15
#        Energy - RMSD - RMSD MassCentre:     -74.1357    999.9999    999.9999
#        Receptor:       1  Surface Point:     1  Conformer:     0
#        Ligand:         8  Surface Point:     1  Conformer:     8
#        BUDE Formal Charge: 0
#        ATOM Count: 65
#        Heavy ATOM Count: 31
@<TRIPOS>MOLECULE
ZINC61400536_1GCZ_R01_S0001_C0000_L00008_S0001_C0008_G0010_E0001
 65 68 0 0 0
SMALL
USER_CHARGES
@<TRIPOS>ATOM
       1 C1        -1.1104    7.3090    9.1138 C.3       1 <0>        -0.1457 
       2 C2        -0.2783    6.0538    9.5130 C.3       1 <0>         0.1768 
       3 C3         0.9044    5.8073    8.5147 C.3       1 <0>        -0.1798 
       4 C4         0.3858    6.3107   10.9093 C.3       1 <0>        -0.1802 
       5 N1        -1.1945    4.9149    9.6443 N.pl3     1 <0>        -0.2386 
       6 C5        -1.4560    3.9589    8.7889 C.2       1 <0>        -0.0401 
       7 C6        -2.3050    3.0959    9.3631 C.2       1 <0>        -0.1820 
       8 C7        -2.5470    3.6034   10.7012 C.2       1 <0>         0.0520 
       9 N2        -1.8594    4.6605   10.7909 N.2       1 <0>        -0.2594 
      10 C8        -3.4136    3.0499   11.7995 C.3       1 <0>        -0.0741 
      11 C9        -2.7005    2.3863   13.0013 C.3       1 <0>        -0.1663 
      12 C10       -3.4463    1.5124   11.9683 C.3       1 <0>        -0.1657 
      13 C11       -1.0038    3.7397    7.3973 C.2       1 <0>         0.5920 
      14 O1        -0.2658    4.5599    6.8771 O.2       1 <0>        -0.5202 
      15 N3        -1.4577    2.6750    6.6875 N.am      1 <0>        -0.7096 
      16 C12       -1.0085    2.4722    5.3153 C.3       1 <0>         0.1269 
      17 C13       -1.6377    1.2543    4.5750 C.3       1 <0>         0.1209 
      18 C14       -1.1596    0.0323    5.3946 C.ar      1 <0>        -0.1261 
      19 C15        0.1787   -0.3722    5.3466 C.ar      1 <0>        -0.0471 
      20 C16        0.6054   -1.4702    6.0971 C.ar      1 <0>        -0.1526 
      21 C17       -0.2771   -2.1725    6.9233 C.ar      1 <0>         0.1329 
      22 C18       -1.6135   -1.7736    6.9620 C.ar      1 <0>        -0.2055 
      23 C19       -2.0510   -0.6818    6.2044 C.ar      1 <0>        -0.0791 
      24 O2         0.2141   -3.2663    7.6625 O.3       1 <0>        -0.3169 
      25 C20        1.2700   -4.1007    7.1547 C.3       1 <0>         0.0263 
      26 N4        -1.1418    1.0136    3.1912 N.3       1 <0>        -0.5235 
      27 C21       -1.1791    2.2234    2.3070 C.3       1 <0>         0.0085 
      28 C22       -0.5177    1.9373    0.9352 C.3       1 <0>         0.0643 
      29 O3        -1.1701    0.8183    0.3128 O.3       1 <0>        -0.3844 
      30 C23       -1.0813   -0.3701    1.1100 C.3       1 <0>         0.0641 
      31 C24       -1.7451   -0.1469    2.4932 C.3       1 <0>         0.0200 
      32 H1        -1.9093    7.4892    9.8525 H         1 <0>         0.0684 
      33 H2        -1.5659    7.1583    8.1208 H         1 <0>         0.0673 
      34 H3        -0.4593    8.1947    9.0724 H         1 <0>         0.0762 
      35 H4         0.5162    5.6085    7.5016 H         1 <0>         0.0772 
      36 H5         1.5615    6.6924    8.4808 H         1 <0>         0.1076 
      37 H6         1.5145    4.9365    8.7903 H         1 <0>         0.0533 
      38 H7         0.9911    5.4410   11.2167 H         1 <0>         0.0541 
      39 H8        -0.3902    6.4911   11.6724 H         1 <0>         0.1047 
      40 H9         1.0463    7.1928   10.8635 H         1 <0>         0.0783 
      41 H10       -2.7483    2.1972    8.9330 H         1 <0>         0.1546 
      42 H11       -4.3602    3.5630   12.0414 H         1 <0>         0.1185 
      43 H12       -1.5990    2.3489   12.9725 H         1 <0>         0.0960 
      44 H13       -3.1733    2.5221   13.9887 H         1 <0>         0.1015 
      45 H14       -2.8228    0.9194   11.2789 H         1 <0>         0.1002 
      46 H15       -4.4088    1.0734   12.2806 H         1 <0>         0.0943 
      47 H16       -2.1003    2.0369    7.1079 H         1 <0>         0.4026 
      48 H17        0.0872    2.3259    5.3204 H         1 <0>         0.0820 
      49 H18       -1.2467    3.3671    4.7136 H         1 <0>         0.0826 
      50 H19       -2.7380    1.3587    4.5842 H         1 <0>         0.0584 
      51 H20        0.8938    0.1611    4.7269 H         1 <0>         0.1381 
      52 H21        1.6444   -1.7849    6.0575 H         1 <0>         0.1314 
      53 H22       -2.3429   -2.2921    7.5740 H         1 <0>         0.1295 
      54 H23       -3.0960   -0.3879    6.2460 H         1 <0>         0.1215 
      55 H24        2.1715   -3.4879    6.9958 H         1 <0>         0.0567 
      56 H25        1.5081   -4.8945    7.8824 H         1 <0>         0.0562 
      57 H26        0.9727   -4.5433    6.1892 H         1 <0>         0.1014 
      58 H27       -0.6351    3.0687    2.7664 H         1 <0>         0.0471 
      59 H28       -2.2053    2.5720    2.0994 H         1 <0>         0.0943 
      60 H29       -0.5847    2.8324    0.2906 H         1 <0>         0.0999 
      61 H30        0.5497    1.6831    1.0585 H         1 <0>         0.0621 
      62 H31       -1.5580   -1.2233    0.5937 H         1 <0>         0.0991 
      63 H32       -0.0114   -0.6088    1.2421 H         1 <0>         0.0615 
      64 H33       -1.6115   -1.0629    3.0952 H         1 <0>         0.0908 
      65 H34       -2.8266    0.0150    2.3334 H         1 <0>         0.0448 
@<TRIPOS>BOND
       1        1        2 1        
       2        1       32 1        
       3        1       33 1        
       4        1       34 1        
       5        2        3 1        
       6        2        4 1        
       7        2        5 1        
       8        3       35 1        
       9        3       36 1        
      10        3       37 1        
      11        4       38 1        
      12        4       39 1        
      13        4       40 1        
      14        5        9 1        
      15        5        6 1        
      16        6        7 2        
      17        6       13 1        
      18        7        8 1        
      19        7       41 1        
      20        8        9 2        
      21        8       10 1        
      22       10       12 1        
      23       10       11 1        
      24       10       42 1        
      25       11       12 1        
      26       11       43 1        
      27       11       44 1        
      28       12       45 1        
      29       12       46 1        
      30       13       14 2        
      31       13       15 am       
      32       15       16 1        
      33       15       47 1        
      34       16       17 1        
      35       16       48 1        
      36       16       49 1        
      37       17       18 1        
      38       17       26 1        
      39       17       50 1        
      40       18       23 ar       
      41       18       19 ar       
      42       19       20 ar       
      43       19       51 1        
      44       20       21 ar       
      45       20       52 1        
      46       21       22 ar       
      47       21       24 1        
      48       22       23 ar       
      49       22       53 1        
      50       23       54 1        
      51       24       25 1        
      52       25       55 1        
      53       25       56 1        
      54       25       57 1        
      55       26       31 1        
      56       26       27 1        
      57       27       28 1        
      58       27       58 1        
      59       27       59 1        
      60       28       29 1        
      61       28       60 1        
      62       28       61 1        
      63       29       30 1        
      64       30       31 1        
      65       30       62 1        
      66       30       63 1        
      67       31       64 1        
      68       31       65 1        

