#        1GCZ_R01_S0001_C0000_L00008_S0001_C0008_G0010_E0001.mol2
#        Tue Jun  6 14:09:44 2017
#        Descriptor:     23     4     9    10     9    14
#        Energy - RMSD - RMSD MassCentre:     -75.1862    999.9999    999.9999
#        Receptor:       1  Surface Point:     1  Conformer:     0
#        Ligand:         8  Surface Point:     1  Conformer:     8
#        BUDE Formal Charge: 0
#        ATOM Count: 65
#        Heavy ATOM Count: 31
@<TRIPOS>MOLECULE
ZINC61400536_1GCZ_R01_S0001_C0000_L00008_S0001_C0008_G0010_E0001
 65 68 0 0 0
SMALL
USER_CHARGES
@<TRIPOS>ATOM
       1 C1         7.6155    2.0578    5.8840 C.3       1 <0>        -0.1457 
       2 C2         6.7660    1.0722    6.7410 C.3       1 <0>         0.1768 
       3 C3         6.3562   -0.1975    5.9188 C.3       1 <0>        -0.1798 
       4 C4         7.6446    0.5486    7.9287 C.3       1 <0>        -0.1802 
       5 N1         5.6292    1.8107    7.3032 N.pl3     1 <0>        -0.2386 
       6 C5         4.3894    1.8664    6.8862 C.2       1 <0>        -0.0401 
       7 C6         3.6842    2.6099    7.7494 C.2       1 <0>        -0.1820 
       8 C7         4.6177    3.0142    8.7846 C.2       1 <0>         0.0520 
       9 N2         5.7268    2.5032    8.4575 N.2       1 <0>        -0.2594 
      10 C8         4.3914    3.8567   10.0104 C.3       1 <0>        -0.0741 
      11 C9         4.3671    3.1316   11.3767 C.3       1 <0>        -0.1663 
      12 C10        3.0535    3.6657   10.7634 C.3       1 <0>        -0.1657 
      13 C11        3.7324    1.2952    5.6899 C.2       1 <0>         0.5920 
      14 O1         4.4010    0.6582    4.8930 O.2       1 <0>        -0.5202 
      15 N3         2.4176    1.5336    5.4490 N.am      1 <0>        -0.7096 
      16 C12        1.7824    0.9693    4.2642 C.3       1 <0>         0.1269 
      17 C13        0.2876    1.3552    4.0544 C.3       1 <0>         0.1209 
      18 C14       -0.4294    0.7514    5.2853 C.ar      1 <0>        -0.1261 
      19 C15       -0.5931   -0.6332    5.4004 C.ar      1 <0>        -0.0471 
      20 C16       -1.2324   -1.1718    6.5193 C.ar      1 <0>        -0.1526 
      21 C17       -1.7008   -0.3541    7.5521 C.ar      1 <0>         0.1329 
      22 C18       -1.5455    1.0271    7.4307 C.ar      1 <0>        -0.2055 
      23 C19       -0.9162    1.5750    6.3076 C.ar      1 <0>        -0.0791 
      24 O2        -2.3299   -0.9565    8.6591 O.3       1 <0>        -0.3169 
      25 C20       -3.1072   -2.1584    8.5172 C.3       1 <0>         0.0263 
      26 N4        -0.3787    0.7382    2.8738 N.3       1 <0>        -0.5235 
      27 C21        0.3758    0.9011    1.5889 C.3       1 <0>         0.0085 
      28 C22       -0.2999    0.1147    0.4371 C.3       1 <0>         0.0643 
      29 O3        -1.6634    0.5464    0.2976 O.3       1 <0>        -0.3844 
      30 C23       -2.4232    0.3303    1.4941 C.3       1 <0>         0.0641 
      31 C24       -1.8008    1.1101    2.6808 C.3       1 <0>         0.0200 
      32 H1         7.9294    2.9218    6.4934 H         1 <0>         0.0684 
      33 H2         7.0226    2.4185    5.0270 H         1 <0>         0.0673 
      34 H3         8.5126    1.5481    5.5027 H         1 <0>         0.0762 
      35 H4         5.7229    0.0882    5.0620 H         1 <0>         0.0772 
      36 H5         7.2566   -0.7128    5.5446 H         1 <0>         0.1076 
      37 H6         5.7718   -0.9137    6.5121 H         1 <0>         0.0533 
      38 H7         7.0727   -0.1606    8.5509 H         1 <0>         0.0541 
      39 H8         7.9719    1.3917    8.5605 H         1 <0>         0.1047 
      40 H9         8.5383    0.0288    7.5446 H         1 <0>         0.0783 
      41 H10        2.6292    2.8816    7.7017 H         1 <0>         0.1546 
      42 H11        4.7930    4.8844   10.0324 H         1 <0>         0.1185 
      43 H12        4.5052    2.0379   11.3664 H         1 <0>         0.0960 
      44 H13        4.7902    3.6837   12.2330 H         1 <0>         0.1015 
      45 H14        2.3542    2.9150   10.3596 H         1 <0>         0.1002 
      46 H15        2.6143    4.5685   11.2203 H         1 <0>         0.0943 
      47 H16        1.8920    2.0977    6.0834 H         1 <0>         0.4026 
      48 H17        1.8334   -0.1332    4.3274 H         1 <0>         0.0820 
      49 H18        2.3255    1.3009    3.3616 H         1 <0>         0.0826 
      50 H19        0.2032    2.4567    4.0207 H         1 <0>         0.0584 
      51 H20       -0.2270   -1.2978    4.6232 H         1 <0>         0.1381 
      52 H21       -1.3610   -2.2469    6.6067 H         1 <0>         0.1314 
      53 H22       -1.9034    1.7076    8.1950 H         1 <0>         0.1295 
      54 H23       -0.8069    2.6530    6.2301 H         1 <0>         0.1215 
      55 H24       -2.4614   -2.9645    8.1339 H         1 <0>         0.0567 
      56 H25       -3.5103   -2.4663    9.4965 H         1 <0>         0.0562 
      57 H26       -3.9286   -1.9965    7.7991 H         1 <0>         0.1014 
      58 H27        1.4102    0.5238    1.6844 H         1 <0>         0.0471 
      59 H28        0.4425    1.9525    1.2605 H         1 <0>         0.0943 
      60 H29        0.2555    0.2747   -0.5048 H         1 <0>         0.0999 
      61 H30       -0.3063   -0.9685    0.6512 H         1 <0>         0.0621 
      62 H31       -3.4754    0.6361    1.3492 H         1 <0>         0.0991 
      63 H32       -2.4117   -0.7525    1.7102 H         1 <0>         0.0615 
      64 H33       -2.3804    0.8784    3.5917 H         1 <0>         0.0908 
      65 H34       -1.8946    2.1907    2.4690 H         1 <0>         0.0448 
@<TRIPOS>BOND
       1        1        2 1        
       2        1       32 1        
       3        1       33 1        
       4        1       34 1        
       5        2        3 1        
       6        2        4 1        
       7        2        5 1        
       8        3       35 1        
       9        3       36 1        
      10        3       37 1        
      11        4       38 1        
      12        4       39 1        
      13        4       40 1        
      14        5        9 1        
      15        5        6 1        
      16        6        7 2        
      17        6       13 1        
      18        7        8 1        
      19        7       41 1        
      20        8        9 2        
      21        8       10 1        
      22       10       12 1        
      23       10       11 1        
      24       10       42 1        
      25       11       12 1        
      26       11       43 1        
      27       11       44 1        
      28       12       45 1        
      29       12       46 1        
      30       13       14 2        
      31       13       15 am       
      32       15       16 1        
      33       15       47 1        
      34       16       17 1        
      35       16       48 1        
      36       16       49 1        
      37       17       18 1        
      38       17       26 1        
      39       17       50 1        
      40       18       23 ar       
      41       18       19 ar       
      42       19       20 ar       
      43       19       51 1        
      44       20       21 ar       
      45       20       52 1        
      46       21       22 ar       
      47       21       24 1        
      48       22       23 ar       
      49       22       53 1        
      50       23       54 1        
      51       24       25 1        
      52       25       55 1        
      53       25       56 1        
      54       25       57 1        
      55       26       31 1        
      56       26       27 1        
      57       27       28 1        
      58       27       58 1        
      59       27       59 1        
      60       28       29 1        
      61       28       60 1        
      62       28       61 1        
      63       29       30 1        
      64       30       31 1        
      65       30       62 1        
      66       30       63 1        
      67       31       64 1        
      68       31       65 1        

