#        1GCZ_R01_S0001_C0000_L00008_S0001_C0009_G0010_E0001.mol2
#        Tue Jun  6 09:57:14 2017
#        Descriptor:     24    11    28    15    10    15
#        Energy - RMSD - RMSD MassCentre:     -63.3719    999.9999    999.9999
#        Receptor:       1  Surface Point:     1  Conformer:     0
#        Ligand:         8  Surface Point:     1  Conformer:     9
#        BUDE Formal Charge: 0
#        ATOM Count: 65
#        Heavy ATOM Count: 31
@<TRIPOS>MOLECULE
ZINC61400536_1GCZ_R01_S0001_C0000_L00008_S0001_C0009_G0010_E0001
 65 68 0 0 0
SMALL
USER_CHARGES
@<TRIPOS>ATOM
       1 C1         2.0303    1.0417    7.9127 C.3       1 <0>        -0.1457 
       2 C2         2.4142    2.3914    7.2358 C.3       1 <0>         0.1768 
       3 C3         2.8275    2.1859    5.7382 C.3       1 <0>        -0.1798 
       4 C4         1.1521    3.3204    7.2087 C.3       1 <0>        -0.1802 
       5 N1         3.4441    3.0421    8.0543 N.pl3     1 <0>        -0.2386 
       6 C5         4.7426    3.0643    7.8885 C.2       1 <0>        -0.0401 
       7 C6         5.2790    3.8385    8.8415 C.2       1 <0>        -0.1820 
       8 C7         4.1653    4.3272    9.6337 C.2       1 <0>         0.0520 
       9 N2         3.1310    3.8252    9.1080 N.2       1 <0>        -0.2594 
      10 C8         4.1615    5.2352   10.8333 C.3       1 <0>        -0.0741 
      11 C9         3.0611    5.0043   11.8959 C.3       1 <0>        -0.1663 
      12 C10        2.9859    6.2327   10.9620 C.3       1 <0>        -0.1657 
      13 C11        5.6151    2.3918    6.9008 C.2       1 <0>         0.5920 
      14 O1         5.1116    1.6560    6.0683 O.2       1 <0>        -0.5202 
      15 N3         6.9634    2.5397    6.9626 N.am      1 <0>        -0.7096 
      16 C12        7.8130    1.8681    5.9865 C.3       1 <0>         0.1269 
      17 C13        9.3464    2.0579    6.1865 C.3       1 <0>         0.1209 
      18 C14        9.9700    1.3985    4.9334 C.ar      1 <0>        -0.1261 
      19 C15        9.9569    0.0075    4.7849 C.ar      1 <0>        -0.0471 
      20 C16       10.5127   -0.5802    3.6464 C.ar      1 <0>        -0.1526 
      21 C17       11.0705    0.1967    2.6266 C.ar      1 <0>         0.1329 
      22 C18       11.0916    1.5832    2.7812 C.ar      1 <0>        -0.2055 
      23 C19       10.5470    2.1786    3.9240 C.ar      1 <0>        -0.0791 
      24 O2        11.6084   -0.4532    1.4985 O.3       1 <0>        -0.3169 
      25 C20       11.0501   -1.6837    1.0052 C.3       1 <0>         0.0263 
      26 N4         9.9408    1.3338    7.3445 N.3       1 <0>        -0.5235 
      27 C21        9.2250    1.5594    8.6419 C.3       1 <0>         0.0085 
      28 C22        9.8071    0.6668    9.7671 C.3       1 <0>         0.0643 
      29 O3        11.2153    0.9202    9.8995 O.3       1 <0>        -0.3844 
      30 C23       11.9305    0.6390    8.6892 C.3       1 <0>         0.0641 
      31 C24       11.4002    1.5193    7.5282 C.3       1 <0>         0.0200 
      32 H1         1.7015    1.2144    8.9512 H         1 <0>         0.0684 
      33 H2         2.8995    0.3630    7.9186 H         1 <0>         0.0673 
      34 H3         1.2116    0.5614    7.3567 H         1 <0>         0.0762 
      35 H4         3.7220    1.5440    5.6716 H         1 <0>         0.0772 
      36 H5         2.0027    1.7126    5.1796 H         1 <0>         0.1076 
      37 H6         3.0842    3.1297    5.2381 H         1 <0>         0.0533 
      38 H7         1.3898    4.2836    6.7259 H         1 <0>         0.0541 
      39 H8         0.8007    3.5151    8.2362 H         1 <0>         0.1047 
      40 H9         0.3357    2.8418    6.6422 H         1 <0>         0.0783 
      41 H10        6.3318    4.0622    9.0167 H         1 <0>         0.1546 
      42 H11        5.1248    5.6007   11.2283 H         1 <0>         0.1185 
      43 H12        2.3386    4.1944   11.7018 H         1 <0>         0.0960 
      44 H13        3.3484    5.1806   12.9463 H         1 <0>         0.1015 
      45 H14        2.2185    6.2072   10.1707 H         1 <0>         0.1002 
      46 H15        3.2227    7.2160   11.4023 H         1 <0>         0.0943 
      47 H16        7.3674    3.1056    7.6791 H         1 <0>         0.4026 
      48 H17        7.5616    2.2476    4.9791 H         1 <0>         0.0820 
      49 H18        7.6211    0.7810    6.0170 H         1 <0>         0.0826 
      50 H19        9.5693    3.1389    6.2441 H         1 <0>         0.0584 
      51 H20        9.5173   -0.6243    5.5514 H         1 <0>         0.1381 
      52 H21       10.5039   -1.6605    3.5331 H         1 <0>         0.1314 
      53 H22       11.5252    2.2315    2.0280 H         1 <0>         0.1295 
      54 H23       10.5751    3.2598    4.0273 H         1 <0>         0.1215 
      55 H24       10.0012   -1.5146    0.7136 H         1 <0>         0.0567 
      56 H25       11.6109   -2.0250    0.1190 H         1 <0>         0.0562 
      57 H26       11.0745   -2.4544    1.7938 H         1 <0>         0.1014 
      58 H27        8.1505    1.3175    8.5507 H         1 <0>         0.0471 
      59 H28        9.2944    2.6027    8.9949 H         1 <0>         0.0943 
      60 H29        9.2852    0.8727   10.7193 H         1 <0>         0.0999 
      61 H30        9.6750   -0.4031    9.5287 H         1 <0>         0.0621 
      62 H31       13.0142    0.8066    8.8279 H         1 <0>         0.0991 
      63 H32       11.7807   -0.4282    8.4487 H         1 <0>         0.0615 
      64 H33       11.9373    1.2385    6.6051 H         1 <0>         0.0908 
      65 H34       11.6314    2.5740    7.7633 H         1 <0>         0.0448 
@<TRIPOS>BOND
       1        1        2 1        
       2        1       32 1        
       3        1       33 1        
       4        1       34 1        
       5        2        3 1        
       6        2        4 1        
       7        2        5 1        
       8        3       35 1        
       9        3       36 1        
      10        3       37 1        
      11        4       38 1        
      12        4       39 1        
      13        4       40 1        
      14        5        9 1        
      15        5        6 1        
      16        6        7 2        
      17        6       13 1        
      18        7        8 1        
      19        7       41 1        
      20        8        9 2        
      21        8       10 1        
      22       10       12 1        
      23       10       11 1        
      24       10       42 1        
      25       11       12 1        
      26       11       43 1        
      27       11       44 1        
      28       12       45 1        
      29       12       46 1        
      30       13       14 2        
      31       13       15 am       
      32       15       16 1        
      33       15       47 1        
      34       16       17 1        
      35       16       48 1        
      36       16       49 1        
      37       17       18 1        
      38       17       26 1        
      39       17       50 1        
      40       18       23 ar       
      41       18       19 ar       
      42       19       20 ar       
      43       19       51 1        
      44       20       21 ar       
      45       20       52 1        
      46       21       22 ar       
      47       21       24 1        
      48       22       23 ar       
      49       22       53 1        
      50       23       54 1        
      51       24       25 1        
      52       25       55 1        
      53       25       56 1        
      54       25       57 1        
      55       26       31 1        
      56       26       27 1        
      57       27       28 1        
      58       27       58 1        
      59       27       59 1        
      60       28       29 1        
      61       28       60 1        
      62       28       61 1        
      63       29       30 1        
      64       30       31 1        
      65       30       62 1        
      66       30       63 1        
      67       31       64 1        
      68       31       65 1        

