#        1GCZ_R01_S0001_C0000_L00008_S0001_C0009_G0010_E0001.mol2
#        Tue Jun  6 14:09:46 2017
#        Descriptor:     13    12    22    15    10    15
#        Energy - RMSD - RMSD MassCentre:     -63.6000    999.9999    999.9999
#        Receptor:       1  Surface Point:     1  Conformer:     0
#        Ligand:         8  Surface Point:     1  Conformer:     9
#        BUDE Formal Charge: 0
#        ATOM Count: 65
#        Heavy ATOM Count: 31
@<TRIPOS>MOLECULE
ZINC61400536_1GCZ_R01_S0001_C0000_L00008_S0001_C0009_G0010_E0001
 65 68 0 0 0
SMALL
USER_CHARGES
@<TRIPOS>ATOM
       1 C1        11.4389    3.9413    5.2747 C.3       1 <0>        -0.1457 
       2 C2        11.3790    2.4251    5.6281 C.3       1 <0>         0.1768 
       3 C3        10.5870    1.6139    4.5461 C.3       1 <0>        -0.1798 
       4 C4        12.8352    1.8456    5.6176 C.3       1 <0>        -0.1802 
       5 N1        10.8417    2.2885    6.9870 N.pl3     1 <0>        -0.2386 
       6 C5         9.6230    2.0037    7.3714 C.2       1 <0>        -0.0401 
       7 C6         9.6091    1.9162    8.7084 C.2       1 <0>        -0.1820 
       8 C7        10.9728    2.1634    9.1395 C.2       1 <0>         0.0520 
       9 N2        11.6311    2.3643    8.0791 N.2       1 <0>        -0.2594 
      10 C8        11.5545    2.1919   10.5268 C.3       1 <0>        -0.0741 
      11 C9        12.7298    3.1641   10.7848 C.3       1 <0>        -0.1663 
      12 C10       12.9902    1.6434   10.7035 C.3       1 <0>        -0.1657 
      13 C11        8.3738    1.8106    6.6024 C.2       1 <0>         0.5920 
      14 O1         8.3981    1.9378    5.3895 O.2       1 <0>        -0.5202 
      15 N3         7.2038    1.5611    7.2446 N.am      1 <0>        -0.7096 
      16 C12        5.9785    1.3774    6.4761 C.3       1 <0>         0.1269 
      17 C13        4.6850    1.1563    7.3159 C.3       1 <0>         0.1209 
      18 C14        3.6065    0.8220    6.2579 C.ar      1 <0>        -0.1261 
      19 C15        3.1230    1.8169    5.4015 C.ar      1 <0>        -0.0471 
      20 C16        2.1568    1.5057    4.4421 C.ar      1 <0>        -0.1526 
      21 C17        1.6687    0.2035    4.2987 C.ar      1 <0>         0.1329 
      22 C18        2.1448   -0.7851    5.1605 C.ar      1 <0>        -0.2055 
      23 C19        3.1043   -0.4788    6.1314 C.ar      1 <0>        -0.0791 
      24 O2         0.7007   -0.0506    3.3074 O.3       1 <0>        -0.3169 
      25 C20        0.6894    0.6773    2.0667 C.3       1 <0>         0.0263 
      26 N4         4.1687    2.3550    8.0335 N.3       1 <0>        -0.5235 
      27 C21        5.1978    3.0663    8.8589 C.3       1 <0>         0.0085 
      28 C22        4.6293    4.3779    9.4576 C.3       1 <0>         0.0643 
      29 O3         3.4557    4.0817   10.2321 O.3       1 <0>        -0.3844 
      30 C23        2.4288    3.4673    9.4427 C.3       1 <0>         0.0641 
      31 C24        2.9376    2.1368    8.8303 C.3       1 <0>         0.0200 
      32 H1        12.0368    4.4856    6.0249 H         1 <0>         0.0684 
      33 H2        10.4202    4.3629    5.2517 H         1 <0>         0.0673 
      34 H3        11.9002    4.0792    4.2856 H         1 <0>         0.0762 
      35 H4         9.5405    1.9592    4.4976 H         1 <0>         0.0772 
      36 H5        11.0555    1.7456    3.5565 H         1 <0>         0.1076 
      37 H6        10.5496    0.5389    4.7685 H         1 <0>         0.0533 
      38 H7        12.8257    0.7684    5.8560 H         1 <0>         0.0541 
      39 H8        13.4585    2.3689    6.3624 H         1 <0>         0.1047 
      40 H9        13.2925    1.9753    4.6223 H         1 <0>         0.0783 
      41 H10        8.7607    1.7149    9.3632 H         1 <0>         0.1546 
      42 H11       10.8857    2.0263   11.3887 H         1 <0>         0.1185 
      43 H12       13.0774    3.7685    9.9307 H         1 <0>         0.0960 
      44 H13       12.7681    3.6342   11.7820 H         1 <0>         0.1015 
      45 H14       13.5010    1.2760    9.7981 H         1 <0>         0.1002 
      46 H15       13.2014    1.1169   11.6495 H         1 <0>         0.0943 
      47 H16        7.1874    1.5078    8.2414 H         1 <0>         0.4026 
      48 H17        6.1016    0.4958    5.8205 H         1 <0>         0.0820 
      49 H18        5.8007    2.2679    5.8477 H         1 <0>         0.0826 
      50 H19        4.8529    0.3206    8.0194 H         1 <0>         0.0584 
      51 H20        3.4927    2.8356    5.4760 H         1 <0>         0.1381 
      52 H21        1.7805    2.2793    3.7790 H         1 <0>         0.1314 
      53 H22        1.7893   -1.8078    5.1025 H         1 <0>         0.1295 
      54 H23        3.4609   -1.2616    6.7949 H         1 <0>         0.1215 
      55 H24        1.6376    0.5006    1.5343 H         1 <0>         0.0567 
      56 H25       -0.1414    0.3282    1.4309 H         1 <0>         0.0562 
      57 H26        0.5936    1.7585    2.2620 H         1 <0>         0.1014 
      58 H27        6.0795    3.3361    8.2496 H         1 <0>         0.0471 
      59 H28        5.5618    2.4608    9.7067 H         1 <0>         0.0943 
      60 H29        5.3948    4.8681   10.0861 H         1 <0>         0.0999 
      61 H30        4.3403    5.0824    8.6581 H         1 <0>         0.0621 
      62 H31        1.5251    3.2833   10.0519 H         1 <0>         0.0991 
      63 H32        2.1564    4.1707    8.6363 H         1 <0>         0.0615 
      64 H33        2.1400    1.7209    8.1898 H         1 <0>         0.0908 
      65 H34        3.1301    1.4294    9.6571 H         1 <0>         0.0448 
@<TRIPOS>BOND
       1        1        2 1        
       2        1       32 1        
       3        1       33 1        
       4        1       34 1        
       5        2        3 1        
       6        2        4 1        
       7        2        5 1        
       8        3       35 1        
       9        3       36 1        
      10        3       37 1        
      11        4       38 1        
      12        4       39 1        
      13        4       40 1        
      14        5        9 1        
      15        5        6 1        
      16        6        7 2        
      17        6       13 1        
      18        7        8 1        
      19        7       41 1        
      20        8        9 2        
      21        8       10 1        
      22       10       12 1        
      23       10       11 1        
      24       10       42 1        
      25       11       12 1        
      26       11       43 1        
      27       11       44 1        
      28       12       45 1        
      29       12       46 1        
      30       13       14 2        
      31       13       15 am       
      32       15       16 1        
      33       15       47 1        
      34       16       17 1        
      35       16       48 1        
      36       16       49 1        
      37       17       18 1        
      38       17       26 1        
      39       17       50 1        
      40       18       23 ar       
      41       18       19 ar       
      42       19       20 ar       
      43       19       51 1        
      44       20       21 ar       
      45       20       52 1        
      46       21       22 ar       
      47       21       24 1        
      48       22       23 ar       
      49       22       53 1        
      50       23       54 1        
      51       24       25 1        
      52       25       55 1        
      53       25       56 1        
      54       25       57 1        
      55       26       31 1        
      56       26       27 1        
      57       27       28 1        
      58       27       58 1        
      59       27       59 1        
      60       28       29 1        
      61       28       60 1        
      62       28       61 1        
      63       29       30 1        
      64       30       31 1        
      65       30       62 1        
      66       30       63 1        
      67       31       64 1        
      68       31       65 1        

