#        1GCZ_R01_S0001_C0000_L00008_S0001_C0010_G0010_E0001.mol2
#        Tue Jun  6 09:57:14 2017
#        Descriptor:      2    14     2     7    10    14
#        Energy - RMSD - RMSD MassCentre:     -75.6566    999.9999    999.9999
#        Receptor:       1  Surface Point:     1  Conformer:     0
#        Ligand:         8  Surface Point:     1  Conformer:    10
#        BUDE Formal Charge: 0
#        ATOM Count: 65
#        Heavy ATOM Count: 31
@<TRIPOS>MOLECULE
ZINC61400536_1GCZ_R01_S0001_C0000_L00008_S0001_C0010_G0010_E0001
 65 68 0 0 0
SMALL
USER_CHARGES
@<TRIPOS>ATOM
       1 C1        -1.8593    7.1287    8.1809 C.3       1 <0>        -0.1457 
       2 C2        -0.8219    6.0370    8.5801 C.3       1 <0>         0.1768 
       3 C3         0.3856    5.9996    7.5818 C.3       1 <0>        -0.1798 
       4 C4        -0.2125    6.4053    9.9764 C.3       1 <0>        -0.1802 
       5 N1        -1.5263    4.7563    8.7114 N.pl3     1 <0>        -0.2386 
       6 C5        -1.6179    3.7695    7.8560 C.2       1 <0>        -0.0401 
       7 C6        -2.3041    2.7721    8.4302 C.2       1 <0>        -0.1820 
       8 C7        -2.6306    3.2299    9.7683 C.2       1 <0>         0.0520 
       9 N2        -2.1370    4.3903    9.8580 N.2       1 <0>        -0.2594 
      10 C8        -3.3879    2.5343   10.8666 C.3       1 <0>        -0.0741 
      11 C9        -4.6290    1.7054   10.4596 C.3       1 <0>        -0.1663 
      12 C10       -4.8086    3.0563   11.1872 C.3       1 <0>        -0.1657 
      13 C11       -1.1345    3.6321    6.4644 C.2       1 <0>         0.5920 
      14 O1        -0.5502    4.5680    5.9442 O.2       1 <0>        -0.5202 
      15 N3        -1.3966    2.5047    5.7546 N.am      1 <0>        -0.7096 
      16 C12       -0.9190    2.3830    4.3824 C.3       1 <0>         0.1269 
      17 C13       -1.3272    1.0744    3.6421 C.3       1 <0>         0.1209 
      18 C14       -0.6441   -0.0460    4.4617 C.ar      1 <0>        -0.1261 
      19 C15        0.7441   -0.2120    4.4137 C.ar      1 <0>        -0.0471 
      20 C16        1.3550   -1.2192    5.1642 C.ar      1 <0>        -0.1526 
      21 C17        0.6078   -2.0641    5.9904 C.ar      1 <0>         0.1329 
      22 C18       -0.7776   -1.9033    6.0291 C.ar      1 <0>        -0.2055 
      23 C19       -1.3980   -0.9041    5.2715 C.ar      1 <0>        -0.0791 
      24 O2         1.2814   -3.0560    6.7296 O.3       1 <0>        -0.3169 
      25 C20        2.4662   -3.6944    6.2218 C.3       1 <0>         0.0263 
      26 N4        -0.7970    0.9235    2.2583 N.3       1 <0>        -0.5235 
      27 C21       -1.0438    2.1084    1.3742 C.3       1 <0>         0.0085 
      28 C22       -0.3428    1.9414    0.0023 C.3       1 <0>         0.0643 
      29 O3        -0.7910    0.7262   -0.6201 O.3       1 <0>        -0.3844 
      30 C23       -0.4972   -0.4288    0.1771 C.3       1 <0>         0.0641 
      31 C24       -1.1897   -0.3242    1.5603 C.3       1 <0>         0.0200 
      32 H1        -2.6774    7.1673    8.9196 H         1 <0>         0.0684 
      33 H2        -2.2817    6.9012    7.1879 H         1 <0>         0.0673 
      34 H3        -1.3719    8.1139    8.1395 H         1 <0>         0.0762 
      35 H4         0.0379    5.7364    6.5687 H         1 <0>         0.0772 
      36 H5         0.8791    6.9853    7.5479 H         1 <0>         0.1076 
      37 H6         1.1377    5.2480    7.8574 H         1 <0>         0.0533 
      38 H7         0.5347    5.6540   10.2838 H         1 <0>         0.0541 
      39 H8        -1.0080    6.4483   10.7395 H         1 <0>         0.1047 
      40 H9         0.2848    7.3887    9.9306 H         1 <0>         0.0783 
      41 H10       -2.5846    1.8101    8.0002 H         1 <0>         0.1546 
      42 H11       -2.8297    2.1462   11.7358 H         1 <0>         0.1185 
      43 H12       -4.8895    1.6856    9.3885 H         1 <0>         0.0960 
      44 H13       -4.8170    0.7861   11.0397 H         1 <0>         0.1015 
      45 H14       -5.1807    3.8993   10.5820 H         1 <0>         0.1002 
      46 H15       -5.1167    3.0217   12.2458 H         1 <0>         0.0943 
      47 H16       -1.9186    1.7647    6.1750 H         1 <0>         0.4026 
      48 H17        0.1854    2.4292    4.3875 H         1 <0>         0.0820 
      49 H18       -1.3090    3.2230    3.7807 H         1 <0>         0.0826 
      50 H19       -2.4289    0.9861    3.6513 H         1 <0>         0.0584 
      51 H20        1.3557    0.4374    3.7940 H         1 <0>         0.1381 
      52 H21        2.4328   -1.3488    5.1246 H         1 <0>         0.1314 
      53 H22       -1.4058   -2.5406    6.6412 H         1 <0>         0.1295 
      54 H23       -2.4782   -0.7962    5.3131 H         1 <0>         0.1215 
      55 H24        3.2476   -2.9343    6.0629 H         1 <0>         0.0567 
      56 H25        2.8386   -4.4348    6.9495 H         1 <0>         0.0562 
      57 H26        2.2503   -4.1819    5.2563 H         1 <0>         0.1014 
      58 H27       -0.6549    3.0353    1.8335 H         1 <0>         0.0471 
      59 H28       -2.1150    2.2735    1.1665 H         1 <0>         0.0943 
      60 H29       -0.5642    2.8113   -0.6423 H         1 <0>         0.0999 
      61 H30        0.7525    1.8764    0.1256 H         1 <0>         0.0621 
      62 H31       -0.8184   -1.3517   -0.3392 H         1 <0>         0.0991 
      63 H32        0.5979   -0.4780    0.3092 H         1 <0>         0.0615 
      64 H33       -0.8990   -1.2031    2.1623 H         1 <0>         0.0908 
      65 H34       -2.2828   -0.3526    1.4005 H         1 <0>         0.0448 
@<TRIPOS>BOND
       1        1        2 1        
       2        1       32 1        
       3        1       33 1        
       4        1       34 1        
       5        2        3 1        
       6        2        4 1        
       7        2        5 1        
       8        3       35 1        
       9        3       36 1        
      10        3       37 1        
      11        4       38 1        
      12        4       39 1        
      13        4       40 1        
      14        5        9 1        
      15        5        6 1        
      16        6        7 2        
      17        6       13 1        
      18        7        8 1        
      19        7       41 1        
      20        8        9 2        
      21        8       10 1        
      22       10       12 1        
      23       10       11 1        
      24       10       42 1        
      25       11       12 1        
      26       11       43 1        
      27       11       44 1        
      28       12       45 1        
      29       12       46 1        
      30       13       14 2        
      31       13       15 am       
      32       15       16 1        
      33       15       47 1        
      34       16       17 1        
      35       16       48 1        
      36       16       49 1        
      37       17       18 1        
      38       17       26 1        
      39       17       50 1        
      40       18       23 ar       
      41       18       19 ar       
      42       19       20 ar       
      43       19       51 1        
      44       20       21 ar       
      45       20       52 1        
      46       21       22 ar       
      47       21       24 1        
      48       22       23 ar       
      49       22       53 1        
      50       23       54 1        
      51       24       25 1        
      52       25       55 1        
      53       25       56 1        
      54       25       57 1        
      55       26       31 1        
      56       26       27 1        
      57       27       28 1        
      58       27       58 1        
      59       27       59 1        
      60       28       29 1        
      61       28       60 1        
      62       28       61 1        
      63       29       30 1        
      64       30       31 1        
      65       30       62 1        
      66       30       63 1        
      67       31       64 1        
      68       31       65 1        

