#        1GCZ_R01_S0001_C0000_L00008_S0001_C0010_G0010_E0001.mol2
#        Tue Jun  6 14:09:48 2017
#        Descriptor:     22    15     7    12     7    13
#        Energy - RMSD - RMSD MassCentre:     -64.5160    999.9999    999.9999
#        Receptor:       1  Surface Point:     1  Conformer:     0
#        Ligand:         8  Surface Point:     1  Conformer:    10
#        BUDE Formal Charge: 0
#        ATOM Count: 65
#        Heavy ATOM Count: 31
@<TRIPOS>MOLECULE
ZINC61400536_1GCZ_R01_S0001_C0000_L00008_S0001_C0010_G0010_E0001
 65 68 0 0 0
SMALL
USER_CHARGES
@<TRIPOS>ATOM
       1 C1         8.9800   -3.6452    4.9982 C.3       1 <0>        -0.1457 
       2 C2         7.8519   -3.6439    3.9236 C.3       1 <0>         0.1768 
       3 C3         7.8676   -2.3260    3.0758 C.3       1 <0>        -0.1798 
       4 C4         8.1182   -4.8092    2.9096 C.3       1 <0>        -0.1802 
       5 N1         6.5736   -3.9050    4.5956 N.pl3     1 <0>        -0.2386 
       6 C5         5.6477   -3.0596    4.9723 C.2       1 <0>        -0.0401 
       7 C6         4.6221   -3.7535    5.4842 C.2       1 <0>        -0.1820 
       8 C7         4.9926   -5.1527    5.3767 C.2       1 <0>         0.0520 
       9 N2         6.1385   -5.1585    4.8427 N.2       1 <0>        -0.2594 
      10 C8         4.2336   -6.3847    5.7885 C.3       1 <0>        -0.0741 
      11 C9         3.4486   -6.3241    7.1201 C.3       1 <0>        -0.1663 
      12 C10        4.7495   -7.1523    7.0288 C.3       1 <0>        -0.1657 
      13 C11        5.5986   -1.5813    4.9364 C.2       1 <0>         0.5920 
      14 O1         6.5605   -0.9660    4.5072 O.2       1 <0>        -0.5202 
      15 N3         4.5247   -0.9175    5.4360 N.am      1 <0>        -0.7096 
      16 C12        4.4900    0.5396    5.3993 C.3       1 <0>         0.1269 
      17 C13        3.2391    1.1990    6.0531 C.3       1 <0>         0.1209 
      18 C14        2.0581    0.6947    5.1901 C.ar      1 <0>        -0.1261 
      19 C15        1.8794    1.1717    3.8872 C.ar      1 <0>        -0.0471 
      20 C16        0.8169    0.7043    3.1103 C.ar      1 <0>        -0.1526 
      21 C17       -0.0729   -0.2569    3.5994 C.ar      1 <0>         0.1329 
      22 C18        0.1012   -0.7238    4.9025 C.ar      1 <0>        -0.2055 
      23 C19        1.1564   -0.2521    5.6909 C.ar      1 <0>        -0.0791 
      24 O2        -1.1201   -0.6953    2.7656 O.3       1 <0>        -0.3169 
      25 C20       -1.7367    0.1857    1.8103 C.3       1 <0>         0.0263 
      26 N4         3.1754    2.6849    5.9706 N.3       1 <0>        -0.5235 
      27 C21        4.4200    3.3790    6.4354 C.3       1 <0>         0.0085 
      28 C22        4.3374    4.9063    6.1870 C.3       1 <0>         0.0643 
      29 O3         3.1722    5.4358    6.8404 O.3       1 <0>        -0.3844 
      30 C23        1.9628    4.8369    6.3562 C.3       1 <0>         0.0641 
      31 C24        1.9822    3.3050    6.5949 C.3       1 <0>         0.0200 
      32 H1         8.9785   -4.5983    5.5532 H         1 <0>         0.0684 
      33 H2         8.8248   -2.8154    5.7077 H         1 <0>         0.0673 
      34 H3         9.9600   -3.5177    4.5151 H         1 <0>         0.0762 
      35 H4         7.6772   -1.4522    3.7214 H         1 <0>         0.0772 
      36 H5         8.8475   -2.2037    2.5847 H         1 <0>         0.1076 
      37 H6         7.0903   -2.3143    2.2997 H         1 <0>         0.0533 
      38 H7         7.3391   -4.8293    2.1286 H         1 <0>         0.0541 
      39 H8         8.1190   -5.7788    3.4358 H         1 <0>         0.1047 
      40 H9         9.0966   -4.6742    2.4186 H         1 <0>         0.0783 
      41 H10        3.6946   -3.3713    5.9117 H         1 <0>         0.1546 
      42 H11        3.7813   -7.0184    5.0064 H         1 <0>         0.1185 
      43 H12        3.5039   -5.3834    7.6924 H         1 <0>         0.0960 
      44 H13        2.4946   -6.8771    7.1531 H         1 <0>         0.1015 
      45 H14        5.6356   -6.7407    7.5396 H         1 <0>         0.1002 
      46 H15        4.6474   -8.2503    7.0037 H         1 <0>         0.0943 
      47 H16        3.7643   -1.4309    5.8298 H         1 <0>         0.4026 
      48 H17        4.5228    0.8671    4.3440 H         1 <0>         0.0820 
      49 H18        5.3731    0.9425    5.9261 H         1 <0>         0.0826 
      50 H19        3.1633    0.8613    7.1027 H         1 <0>         0.0584 
      51 H20        2.5618    1.9072    3.4711 H         1 <0>         0.1381 
      52 H21        0.6777    1.0769    2.0995 H         1 <0>         0.1314 
      53 H22       -0.5684   -1.4578    5.3364 H         1 <0>         0.1295 
      54 H23        1.2739   -0.6259    6.7041 H         1 <0>         0.1215 
      55 H24       -0.9768    0.5279    1.0898 H         1 <0>         0.0567 
      56 H25       -2.5287   -0.3484    1.2591 H         1 <0>         0.0562 
      57 H26       -2.1556    1.0679    2.3229 H         1 <0>         0.1014 
      58 H27        5.3092    3.0041    5.8968 H         1 <0>         0.0471 
      59 H28        4.6112    3.2414    7.5135 H         1 <0>         0.0943 
      60 H29        5.2513    5.3995    6.5652 H         1 <0>         0.0999 
      61 H30        4.2515    5.1254    5.1083 H         1 <0>         0.0621 
      62 H31        1.0805    5.2862    6.8474 H         1 <0>         0.0991 
      63 H32        1.8920    5.0465    5.2745 H         1 <0>         0.0615 
      64 H33        1.0614    2.8740    6.1639 H         1 <0>         0.0908 
      65 H34        1.9775    3.1270    7.6856 H         1 <0>         0.0448 
@<TRIPOS>BOND
       1        1        2 1        
       2        1       32 1        
       3        1       33 1        
       4        1       34 1        
       5        2        3 1        
       6        2        4 1        
       7        2        5 1        
       8        3       35 1        
       9        3       36 1        
      10        3       37 1        
      11        4       38 1        
      12        4       39 1        
      13        4       40 1        
      14        5        9 1        
      15        5        6 1        
      16        6        7 2        
      17        6       13 1        
      18        7        8 1        
      19        7       41 1        
      20        8        9 2        
      21        8       10 1        
      22       10       12 1        
      23       10       11 1        
      24       10       42 1        
      25       11       12 1        
      26       11       43 1        
      27       11       44 1        
      28       12       45 1        
      29       12       46 1        
      30       13       14 2        
      31       13       15 am       
      32       15       16 1        
      33       15       47 1        
      34       16       17 1        
      35       16       48 1        
      36       16       49 1        
      37       17       18 1        
      38       17       26 1        
      39       17       50 1        
      40       18       23 ar       
      41       18       19 ar       
      42       19       20 ar       
      43       19       51 1        
      44       20       21 ar       
      45       20       52 1        
      46       21       22 ar       
      47       21       24 1        
      48       22       23 ar       
      49       22       53 1        
      50       23       54 1        
      51       24       25 1        
      52       25       55 1        
      53       25       56 1        
      54       25       57 1        
      55       26       31 1        
      56       26       27 1        
      57       27       28 1        
      58       27       58 1        
      59       27       59 1        
      60       28       29 1        
      61       28       60 1        
      62       28       61 1        
      63       29       30 1        
      64       30       31 1        
      65       30       62 1        
      66       30       63 1        
      67       31       64 1        
      68       31       65 1        

