#        1GCZ_R01_S0001_C0000_L00003_S0001_C0007_G0010_E0001.mol2
#        Tue Jun  6 14:03:40 2017
#        Descriptor:     18    24     5    10     4    14
#        Energy - RMSD - RMSD MassCentre:     -55.1678    999.9999    999.9999
#        Receptor:       1  Surface Point:     1  Conformer:     0
#        Ligand:         3  Surface Point:     1  Conformer:     7
#        BUDE Formal Charge: 0
#        ATOM Count: 58
#        Heavy ATOM Count: 30
@<TRIPOS>MOLECULE
ZINC61580633_1GCZ_R01_S0001_C0000_L00003_S0001_C0007_G0010_E0001
 58 59 0 0 0
SMALL
USER_CHARGES
@<TRIPOS>ATOM
       1 C1         8.4133   -6.4741    4.8540 C.3       1 <0>        -0.1532 
       2 C2         7.8265   -5.4299    3.9085 C.3       1 <0>        -0.1224 
       3 C3         6.4135   -5.0684    4.3640 C.3       1 <0>        -0.1198 
       4 C4         5.5333   -6.3169    4.3300 C.3       1 <0>         0.0610 
       5 O1         4.2109   -5.9785    4.7563 O.3       1 <0>        -0.3878 
       6 C5         3.3389   -7.1118    4.7449 C.3       1 <0>         0.0487 
       7 C6         1.9466   -6.6868    5.2086 C.3       1 <0>         0.1244 
       8 N1         1.9732   -6.4175    6.6534 N.am      1 <0>        -0.7216 
       9 C7         2.0785   -7.4250    7.5154 C.2       1 <0>         0.5161 
      10 O2         2.1535   -8.5818    7.1043 O.2       1 <0>        -0.5151 
      11 C8         2.1059   -7.1485    8.9996 C.3       1 <0>         0.0490 
      12 O3         0.8160   -6.7003    9.4239 O.3       1 <0>        -0.3194 
      13 C9         0.3478   -5.5422    8.9119 C.2       1 <0>         0.5417 
      14 O4         1.0203   -4.9118    8.1126 O.2       1 <0>        -0.5337 
      15 C10       -0.9818   -5.0370    9.3204 C.2       1 <0>        -0.2559 
      16 C11       -1.8830   -5.7271   10.2701 C.2       1 <0>        -0.0791 
      17 C12       -3.0280   -5.0664   10.4564 C.2       1 <0>        -0.2585 
      18 S1        -3.1126   -3.5689    9.5168 S.3       1 <0>         0.3028 
      19 C13       -1.5057   -3.8964    8.8513 C.2       1 <0>         0.0893 
      20 N2        -0.8429   -3.1056    7.9500 N.am      1 <0>        -0.6099 
      21 C14       -1.4030   -1.9816    7.5122 C.2       1 <0>         0.5551 
      22 O5        -2.5167   -1.6516    7.9169 O.2       1 <0>        -0.4939 
      23 C15       -0.6857   -1.1284    6.5386 C.ar      1 <0>        -0.1466 
      24 C16       -1.3136    0.0444    6.1020 C.ar      1 <0>        -0.0772 
      25 C17       -0.7180    0.8537    5.1274 C.ar      1 <0>        -0.1241 
      26 C18        0.5130    0.4995    4.5631 C.ar      1 <0>        -0.0446 
      27 C19        1.1680   -0.6440    5.0357 C.ar      1 <0>        -0.1261 
      28 C20        0.5826   -1.4350    6.0315 C.ar      1 <0>        -0.0460 
      29 C21        1.1091    1.3525    3.4689 C.3       1 <0>        -0.0928 
      30 C22        0.6332    0.8429    2.1116 C.3       1 <0>        -0.1485 
      31 H1         7.7960   -7.3698    4.8322 H         1 <0>         0.0567 
      32 H2         8.4369   -6.0740    5.8654 H         1 <0>         0.0554 
      33 H3         9.4243   -6.7217    4.5375 H         1 <0>         0.0557 
      34 H4         8.4500   -4.5383    3.9200 H         1 <0>         0.0632 
      35 H5         7.7892   -5.8339    2.8990 H         1 <0>         0.0635 
      36 H6         6.4479   -4.6771    5.3786 H         1 <0>         0.0711 
      37 H7         5.9988   -4.3147    3.6979 H         1 <0>         0.0704 
      38 H8         5.4975   -6.7086    3.3156 H         1 <0>         0.0498 
      39 H9         5.9466   -7.0710    4.9964 H         1 <0>         0.0505 
      40 H10        3.7266   -7.8754    5.4160 H         1 <0>         0.0584 
      41 H11        3.2776   -7.5128    3.7353 H         1 <0>         0.0702 
      42 H12        1.2357   -7.4840    5.0020 H         1 <0>         0.0872 
      43 H13        1.6463   -5.7858    4.6780 H         1 <0>         0.0805 
      44 H14        1.9116   -5.4680    6.9921 H         1 <0>         0.4058 
      45 H15        2.3665   -8.0595    9.5342 H         1 <0>         0.1008 
      46 H16        2.8446   -6.3785    9.2120 H         1 <0>         0.0999 
      47 H17       -1.6181   -6.6546   10.7558 H         1 <0>         0.1557 
      48 H18       -3.8032   -5.4150   11.1226 H         1 <0>         0.1929 
      49 H19        0.0715   -3.3765    7.6177 H         1 <0>         0.4317 
      50 H20       -2.2697    0.3275    6.5169 H         1 <0>         0.1287 
      51 H21       -1.2088    1.7593    4.8030 H         1 <0>         0.1326 
      52 H22        2.1320   -0.9047    4.6244 H         1 <0>         0.1342 
      53 H23        1.1605   -2.2705    6.3981 H         1 <0>         0.1410 
      54 H24        2.1946    1.2972    3.5175 H         1 <0>         0.0777 
      55 H25        0.7918    2.3848    3.6011 H         1 <0>         0.0771 
      56 H26       -0.4514    0.9105    2.0595 H         1 <0>         0.0623 
      57 H27        0.9390   -0.1938    1.9865 H         1 <0>         0.0572 
      58 H28        1.0733    1.4493    1.3227 H         1 <0>         0.0578 
@<TRIPOS>BOND
       1        1        2 1        
       2        1       31 1        
       3        1       32 1        
       4        1       33 1        
       5        2        3 1        
       6        2       34 1        
       7        2       35 1        
       8        3        4 1        
       9        3       36 1        
      10        3       37 1        
      11        4        5 1        
      12        4       38 1        
      13        4       39 1        
      14        5        6 1        
      15        6        7 1        
      16        6       40 1        
      17        6       41 1        
      18        7        8 1        
      19        7       42 1        
      20        7       43 1        
      21        8        9 am       
      22        8       44 1        
      23        9       10 2        
      24        9       11 1        
      25       11       12 1        
      26       11       45 1        
      27       11       46 1        
      28       12       13 1        
      29       13       14 2        
      30       13       15 1        
      31       15       19 2        
      32       15       16 1        
      33       16       17 2        
      34       16       47 1        
      35       17       18 1        
      36       17       48 1        
      37       18       19 1        
      38       19       20 1        
      39       20       21 am       
      40       20       49 1        
      41       21       22 2        
      42       21       23 1        
      43       23       28 ar       
      44       23       24 ar       
      45       24       25 ar       
      46       24       50 1        
      47       25       26 ar       
      48       25       51 1        
      49       26       27 ar       
      50       26       29 1        
      51       27       28 ar       
      52       27       52 1        
      53       28       53 1        
      54       29       30 1        
      55       29       54 1        
      56       29       55 1        
      57       30       56 1        
      58       30       57 1        
      59       30       58 1        

