#        1GCZ_R01_S0001_C0000_L00001_S0001_C0002_G0010_E0001.mol2
#        Tue Jun  6 14:03:11 2017
#        Descriptor:     33    28     8     8     8     6
#        Energy - RMSD - RMSD MassCentre:     -83.9876    999.9999    999.9999
#        Receptor:       1  Surface Point:     1  Conformer:     0
#        Ligand:         1  Surface Point:     1  Conformer:     2
#        BUDE Formal Charge: 0
#        ATOM Count: 27
#        Heavy ATOM Count: 17
@<TRIPOS>MOLECULE
pdb1gcz_ligA.pdb_1GCZ_R01_S0001_C0000_L00001_S0001_C0002_G0010_E0001
27 28 1 0 0
SMALL
GASTEIGER
@<TRIPOS>ATOM
       1 C3        -0.6037   -0.4563    5.3534 C.3       1 YZ9900      0.0513 
       2 C11       -0.8936    0.6918    4.3910 C.3       1 YZ9900      0.2089 
       3 O1        -1.2128    2.2601    2.3051 O.2       1 YZ9900     -0.2447 
       4 O2        -0.6190    0.2712    3.0521 O.3       1 YZ9900     -0.4453 
       5 C6        -0.6533    2.1094   -2.8091 C.ar      1 YZ9900      0.0063 
       6 C5        -0.7379    1.6335   -0.3527 C.ar      1 YZ9900      0.0160 
       7 C4         0.2644   -0.4709   -3.3205 C.ar      1 YZ9900      0.0796 
       8 O3         0.2027   -0.9844   -0.9664 O.2       1 YZ9900     -0.4208 
       9 C2        -0.4604    1.2203   -1.7465 C.ar      1 YZ9900      0.0353 
      10 C1         0.0008   -0.0763   -2.0034 C.ar      1 YZ9900      0.1519 
      11 C7        -0.0600   -0.5907    0.3437 C.ar      1 YZ9900      0.3521 
      12 C12       -0.8184    1.1600    2.0556 C.2       1 YZ9900      0.3476 
      13 O4         0.3447   -0.0172   -5.6594 O.3       1 YZ9900     -0.2865 
      14 O5         0.1234   -1.4012    1.2369 O.2       1 YZ9900     -0.2442 
      15 C10       -0.3881    1.7096   -4.1243 C.ar      1 YZ9900      0.0422 
      16 C9        -0.5484    0.7716    0.6533 C.ar      1 YZ9900      0.1515 
      17 C8         0.0732    0.4145   -4.3879 C.ar      1 YZ9900      0.1988 
      18 H31        0.4457   -0.7344    5.2795 H         1 YZ9900      0.0000 
      19 H32       -0.8252   -0.1405    6.3707 H         1 YZ9900      0.0000 
      20 H33       -1.2251   -1.3111    5.0948 H         1 YZ9900      0.0000 
      21 H112      -0.2626    1.5426    4.6397 H         1 YZ9900      0.0000 
      22 H113      -1.9397    0.9792    4.4728 H         1 YZ9900      0.0000 
      23 H6        -1.0088    3.1112   -2.6185 H         1 YZ9900      0.0000 
      24 H5        -1.0933    2.6359   -0.1649 H         1 YZ9900      0.0000 
      25 H4         0.6200   -1.4723   -3.5138 H         1 YZ9900      0.0000 
      26 HO4        0.6700   -0.9310   -5.6540 H         1 YZ9900      0.0000 
      27 H10       -0.5453    2.4152   -4.9267 H         1 YZ9900      0.0000 
@<TRIPOS>BOND
       1       13       17 1        
       2        7       17 ar       
       3        7       10 ar       
       4        8       10 ar       
       5        8       11 ar       
       6       14       11 2        
       7       17       15 ar       
       8       10        9 ar       
       9       11       16 ar       
      10        2        4 1        
      11        2        1 1        
      12       15        5 ar       
      13        9        5 ar       
      14        9        6 ar       
      15       16        6 ar       
      16       16       12 1        
      17        4       12 1        
      18       12        3 2        
      19       18        1 1        
      20       19        1 1        
      21       20        1 1        
      22       21        2 1        
      23       22        2 1        
      24       23        5 1        
      25       24        6 1        
      26       25        7 1        
      27       26       13 1        
      28       27       15 1        
@<TRIPOS>SUBSTRUCTURE
 1 YZ9900 10 RESIDUE 4 A YZ9900 0 ROOT

