#        1GCZ_R01_S0001_C0000_L00008_S0001_C0011_G0010_E0001.mol2
#        Tue Jun  6 09:57:15 2017
#        Descriptor:      2    13     3     8    10    14
#        Energy - RMSD - RMSD MassCentre:     -76.9867    999.9999    999.9999
#        Receptor:       1  Surface Point:     1  Conformer:     0
#        Ligand:         8  Surface Point:     1  Conformer:    11
#        BUDE Formal Charge: 0
#        ATOM Count: 65
#        Heavy ATOM Count: 31
@<TRIPOS>MOLECULE
ZINC61400536_1GCZ_R01_S0001_C0000_L00008_S0001_C0011_G0010_E0001
 65 68 0 0 0
SMALL
USER_CHARGES
@<TRIPOS>ATOM
       1 C1        -1.5087    7.1690    8.0010 C.3       1 <0>        -0.1457 
       2 C2        -0.2454    6.3042    8.2896 C.3       1 <0>         0.1768 
       3 C3         0.7854    6.3819    7.1117 C.3       1 <0>        -0.1798 
       4 C4         0.4916    6.8887    9.5435 C.3       1 <0>        -0.1802 
       5 N1        -0.6825    4.9404    8.6100 N.pl3     1 <0>        -0.2386 
       6 C5        -0.7244    3.8816    7.8411 C.2       1 <0>        -0.0401 
       7 C6        -1.1277    2.8376    8.5779 C.2       1 <0>        -0.1820 
       8 C7        -1.3255    3.3491    9.9217 C.2       1 <0>         0.0520 
       9 N2        -1.0387    4.5788    9.8606 N.2       1 <0>        -0.2594 
      10 C8        -1.7728    2.6351   11.1682 C.3       1 <0>        -0.0741 
      11 C9        -1.3655    1.1506   11.3220 C.3       1 <0>        -0.1663 
      12 C10       -2.8316    1.5192   11.0034 C.3       1 <0>        -0.1657 
      13 C11       -0.4391    3.7063    6.3999 C.2       1 <0>         0.5920 
      14 O1        -0.1158    4.6777    5.7367 O.2       1 <0>        -0.5202 
      15 N3        -0.5999    2.4937    5.8107 N.am      1 <0>        -0.7096 
      16 C12       -0.3202    2.3346    4.3886 C.3       1 <0>         0.1269 
      17 C13       -0.5953    0.9170    3.8039 C.3       1 <0>         0.1209 
      18 C14        0.3919    0.0014    4.5662 C.ar      1 <0>        -0.1261 
      19 C15        1.7642    0.0653    4.3022 C.ar      1 <0>        -0.0471 
      20 C16        2.6505   -0.7570    5.0015 C.ar      1 <0>        -0.1526 
      21 C17        2.1987   -1.6396    5.9872 C.ar      1 <0>         0.1329 
      22 C18        0.8287   -1.7090    6.2418 C.ar      1 <0>        -0.2055 
      23 C19       -0.0666   -0.8965    5.5376 C.ar      1 <0>        -0.0791 
      24 O2         3.1416   -2.4375    6.6642 O.3       1 <0>        -0.3169 
      25 C20        4.3311   -2.9113    6.0087 C.3       1 <0>         0.0263 
      26 N4        -0.2609    0.7369    2.3635 N.3       1 <0>        -0.5235 
      27 C21       -0.8450    1.7829    1.4627 C.3       1 <0>         0.0085 
      28 C22       -0.3398    1.6165    0.0073 C.3       1 <0>         0.0643 
      29 O3        -0.6528    0.2942   -0.4603 O.3       1 <0>        -0.3844 
      30 C23       -0.0414   -0.7221    0.3453 C.3       1 <0>         0.0641 
      31 C24       -0.5254   -0.6145    1.8143 C.3       1 <0>         0.0200 
      32 H1        -2.2000    7.1350    8.8597 H         1 <0>         0.0684 
      33 H2        -2.0283    6.7891    7.1055 H         1 <0>         0.0673 
      34 H3        -1.2165    8.2144    7.8222 H         1 <0>         0.0762 
      35 H4         0.3418    5.9775    6.1864 H         1 <0>         0.0772 
      36 H5         1.0846    7.4293    6.9393 H         1 <0>         0.1076 
      37 H6         1.6921    5.7928    7.3050 H         1 <0>         0.0533 
      38 H7         1.3983    6.3018    9.7689 H         1 <0>         0.0541 
      39 H8        -0.1749    6.8646   10.4222 H         1 <0>         0.1047 
      40 H9         0.7931    7.9334    9.3588 H         1 <0>         0.0783 
      41 H10       -1.2937    1.8087    8.2572 H         1 <0>         0.1546 
      42 H11       -1.8406    3.2026   12.1123 H         1 <0>         0.1185 
      43 H12       -0.7816    0.7033   10.5008 H         1 <0>         0.0960 
      44 H13       -1.1380    0.8076   12.3455 H         1 <0>         0.1015 
      45 H14       -3.1836    1.3101    9.9797 H         1 <0>         0.1002 
      46 H15       -3.5664    1.4154   11.8196 H         1 <0>         0.0943 
      47 H16       -0.9125    1.7165    6.3538 H         1 <0>         0.4026 
      48 H17        0.7464    2.5643    4.2106 H         1 <0>         0.0820 
      49 H18       -0.9395    3.0424    3.8098 H         1 <0>         0.0826 
      50 H19       -1.6495    0.6476    3.9980 H         1 <0>         0.0584 
      51 H20        2.1500    0.7513    3.5535 H         1 <0>         0.1381 
      52 H21        3.7157   -0.7082    4.7942 H         1 <0>         0.1314 
      53 H22        0.4233   -2.3864    6.9849 H         1 <0>         0.1295 
      54 H23       -1.1300   -0.9668    5.7484 H         1 <0>         0.1215 
      55 H24        4.9317   -2.0484    5.6795 H         1 <0>         0.0567 
      56 H25        4.9346   -3.5134    6.7085 H         1 <0>         0.0562 
      57 H26        4.0628   -3.5099    5.1220 H         1 <0>         0.1014 
      58 H27       -0.5628    2.7980    1.7966 H         1 <0>         0.0471 
      59 H28       -1.9473    1.7486    1.4233 H         1 <0>         0.0943 
      60 H29       -0.8070    2.3781   -0.6431 H         1 <0>         0.0999 
      61 H30        0.7554    1.7458   -0.0462 H         1 <0>         0.0621 
      62 H31       -0.2670   -1.7269   -0.0559 H         1 <0>         0.0991 
      63 H32        1.0522   -0.5766    0.2997 H         1 <0>         0.0615 
      64 H33        0.0043   -1.3771    2.4120 H         1 <0>         0.0908 
      65 H34       -1.6074   -0.8383    1.8370 H         1 <0>         0.0448 
@<TRIPOS>BOND
       1        1        2 1        
       2        1       32 1        
       3        1       33 1        
       4        1       34 1        
       5        2        3 1        
       6        2        4 1        
       7        2        5 1        
       8        3       35 1        
       9        3       36 1        
      10        3       37 1        
      11        4       38 1        
      12        4       39 1        
      13        4       40 1        
      14        5        9 1        
      15        5        6 1        
      16        6        7 2        
      17        6       13 1        
      18        7        8 1        
      19        7       41 1        
      20        8        9 2        
      21        8       10 1        
      22       10       12 1        
      23       10       11 1        
      24       10       42 1        
      25       11       12 1        
      26       11       43 1        
      27       11       44 1        
      28       12       45 1        
      29       12       46 1        
      30       13       14 2        
      31       13       15 am       
      32       15       16 1        
      33       15       47 1        
      34       16       17 1        
      35       16       48 1        
      36       16       49 1        
      37       17       18 1        
      38       17       26 1        
      39       17       50 1        
      40       18       23 ar       
      41       18       19 ar       
      42       19       20 ar       
      43       19       51 1        
      44       20       21 ar       
      45       20       52 1        
      46       21       22 ar       
      47       21       24 1        
      48       22       23 ar       
      49       22       53 1        
      50       23       54 1        
      51       24       25 1        
      52       25       55 1        
      53       25       56 1        
      54       25       57 1        
      55       26       31 1        
      56       26       27 1        
      57       27       28 1        
      58       27       58 1        
      59       27       59 1        
      60       28       29 1        
      61       28       60 1        
      62       28       61 1        
      63       29       30 1        
      64       30       31 1        
      65       30       62 1        
      66       30       63 1        
      67       31       64 1        
      68       31       65 1        

