#        1GCZ_R01_S0001_C0000_L00008_S0001_C0011_G0010_E0001.mol2
#        Tue Jun  6 14:09:50 2017
#        Descriptor:      3    14     1     7    10    15
#        Energy - RMSD - RMSD MassCentre:     -70.6060    999.9999    999.9999
#        Receptor:       1  Surface Point:     1  Conformer:     0
#        Ligand:         8  Surface Point:     1  Conformer:    11
#        BUDE Formal Charge: 0
#        ATOM Count: 65
#        Heavy ATOM Count: 31
@<TRIPOS>MOLECULE
ZINC61400536_1GCZ_R01_S0001_C0000_L00008_S0001_C0011_G0010_E0001
 65 68 0 0 0
SMALL
USER_CHARGES
@<TRIPOS>ATOM
       1 C1        -1.6624    7.5135    8.4703 C.3       1 <0>        -0.1457 
       2 C2        -0.7097    6.4229    9.0451 C.3       1 <0>         0.1768 
       3 C3         0.5228    6.1845    8.1069 C.3       1 <0>        -0.1798 
       4 C4        -0.1208    6.9322   10.4055 C.3       1 <0>        -0.1802 
       5 N1        -1.4985    5.2144    9.3115 N.pl3     1 <0>        -0.2386 
       6 C5        -1.6270    4.1321    8.5861 C.2       1 <0>        -0.0401 
       7 C6        -2.3929    3.2605    9.2560 C.2       1 <0>        -0.1820 
       8 C7        -2.7300    3.9066   10.5112 C.2       1 <0>         0.0520 
       9 N2        -2.1660    5.0373   10.4711 N.2       1 <0>        -0.2594 
      10 C8        -3.5634    3.4057   11.6593 C.3       1 <0>        -0.0741 
      11 C9        -3.5411    1.8852   11.9436 C.3       1 <0>        -0.1663 
      12 C10       -4.7937    2.5338   11.3134 C.3       1 <0>        -0.1657 
      13 C11       -1.1112    3.7869    7.2430 C.2       1 <0>         0.5920 
      14 O1        -0.4525    4.6109    6.6306 O.2       1 <0>        -0.5202 
      15 N3        -1.4233    2.5946    6.6733 N.am      1 <0>        -0.7096 
      16 C12       -0.9129    2.2677    5.3472 C.3       1 <0>         0.1269 
      17 C13       -1.3814    0.9008    4.7647 C.3       1 <0>         0.1209 
      18 C14       -0.7968   -0.1425    5.7462 C.ar      1 <0>        -0.1261 
      19 C15        0.5788   -0.3959    5.7732 C.ar      1 <0>        -0.0471 
      20 C16        1.1007   -1.3318    6.6690 C.ar      1 <0>        -0.1526 
      21 C17        0.2760   -2.0164    7.5669 C.ar      1 <0>         0.1329 
      22 C18       -1.0967   -1.7696    7.5314 C.ar      1 <0>        -0.2055 
      23 C19       -1.6284   -0.8418    6.6293 C.ar      1 <0>        -0.0791 
      24 O2         0.8619   -2.9424    8.4519 O.3       1 <0>        -0.3169 
      25 C20        2.0182   -3.7107    8.0757 C.3       1 <0>         0.0263 
      26 N4        -0.8200    0.5403    3.4329 N.3       1 <0>        -0.5235 
      27 C21       -0.9633    1.6132    2.3960 C.3       1 <0>         0.0085 
      28 C22       -0.2330    1.2282    1.0846 C.3       1 <0>         0.0643 
      29 O3        -0.7390   -0.0286    0.6056 O.3       1 <0>        -0.3844 
      30 C23       -0.5442   -1.0859    1.5543 C.3       1 <0>         0.0641 
      31 C24       -1.2704   -0.7617    2.8852 C.3       1 <0>         0.0200 
      32 H1        -2.4984    7.6964    9.1661 H         1 <0>         0.0684 
      33 H2        -2.0681    7.1847    7.4990 H         1 <0>         0.0673 
      34 H3        -1.1118    8.4542    8.3224 H         1 <0>         0.0762 
      35 H4         0.1899    5.8132    7.1231 H         1 <0>         0.0772 
      36 H5         1.0793    7.1262    7.9666 H         1 <0>         0.1076 
      37 H6         1.2164    5.4314    8.5049 H         1 <0>         0.0533 
      38 H7         0.5670    6.1839   10.8347 H         1 <0>         0.0541 
      39 H8        -0.9348    7.1211   11.1256 H         1 <0>         0.1047 
      40 H9         0.4397    7.8700   10.2537 H         1 <0>         0.0783 
      41 H10       -2.7212    2.2692    8.9417 H         1 <0>         0.1546 
      42 H11       -3.6852    4.0470   12.5492 H         1 <0>         0.1185 
      43 H12       -2.9240    1.2597   11.2779 H         1 <0>         0.0960 
      44 H13       -3.6030    1.5829   13.0027 H         1 <0>         0.1015 
      45 H14       -4.9757    2.3254   10.2462 H         1 <0>         0.1002 
      46 H15       -5.6786    2.6549   11.9608 H         1 <0>         0.0943 
      47 H16       -2.0042    1.9479    7.1642 H         1 <0>         0.4026 
      48 H17        0.1916    2.2482    5.3888 H         1 <0>         0.0820 
      49 H18       -1.2298    3.0443    4.6287 H         1 <0>         0.0826 
      50 H19       -2.4862    0.8803    4.7427 H         1 <0>         0.0584 
      51 H20        1.2493    0.1300    5.0997 H         1 <0>         0.1381 
      52 H21        2.1687   -1.5295    6.6877 H         1 <0>         0.1314 
      53 H22       -1.7828   -2.2835    8.1952 H         1 <0>         0.1295 
      54 H23       -2.7002   -0.6652    6.6151 H         1 <0>         0.1215 
      55 H24        2.8512   -3.0256    7.8512 H         1 <0>         0.0567 
      56 H25        2.3201   -4.3714    8.9057 H         1 <0>         0.0562 
      57 H26        1.8011   -4.3056    7.1727 H         1 <0>         0.1014 
      58 H27       -0.5300    2.5670    2.7479 H         1 <0>         0.0471 
      59 H28       -2.0149    1.8135    2.1280 H         1 <0>         0.0943 
      60 H29       -0.3784    2.0187    0.3263 H         1 <0>         0.0999 
      61 H30        0.8517    1.1145    1.2572 H         1 <0>         0.0621 
      62 H31       -0.9081   -2.0472    1.1479 H         1 <0>         0.0991 
      63 H32        0.5410   -1.1828    1.7336 H         1 <0>         0.0615 
      64 H33       -1.0551   -1.5708    3.6051 H         1 <0>         0.0908 
      65 H34       -2.3577   -0.7453    2.6884 H         1 <0>         0.0448 
@<TRIPOS>BOND
       1        1        2 1        
       2        1       32 1        
       3        1       33 1        
       4        1       34 1        
       5        2        3 1        
       6        2        4 1        
       7        2        5 1        
       8        3       35 1        
       9        3       36 1        
      10        3       37 1        
      11        4       38 1        
      12        4       39 1        
      13        4       40 1        
      14        5        9 1        
      15        5        6 1        
      16        6        7 2        
      17        6       13 1        
      18        7        8 1        
      19        7       41 1        
      20        8        9 2        
      21        8       10 1        
      22       10       12 1        
      23       10       11 1        
      24       10       42 1        
      25       11       12 1        
      26       11       43 1        
      27       11       44 1        
      28       12       45 1        
      29       12       46 1        
      30       13       14 2        
      31       13       15 am       
      32       15       16 1        
      33       15       47 1        
      34       16       17 1        
      35       16       48 1        
      36       16       49 1        
      37       17       18 1        
      38       17       26 1        
      39       17       50 1        
      40       18       23 ar       
      41       18       19 ar       
      42       19       20 ar       
      43       19       51 1        
      44       20       21 ar       
      45       20       52 1        
      46       21       22 ar       
      47       21       24 1        
      48       22       23 ar       
      49       22       53 1        
      50       23       54 1        
      51       24       25 1        
      52       25       55 1        
      53       25       56 1        
      54       25       57 1        
      55       26       31 1        
      56       26       27 1        
      57       27       28 1        
      58       27       58 1        
      59       27       59 1        
      60       28       29 1        
      61       28       60 1        
      62       28       61 1        
      63       29       30 1        
      64       30       31 1        
      65       30       62 1        
      66       30       63 1        
      67       31       64 1        
      68       31       65 1        

