#        1GCZ_R01_S0001_C0000_L00008_S0001_C0012_G0010_E0001.mol2
#        Tue Jun  6 09:57:16 2017
#        Descriptor:      9    14    23    13     9    14
#        Energy - RMSD - RMSD MassCentre:     -67.1475    999.9999    999.9999
#        Receptor:       1  Surface Point:     1  Conformer:     0
#        Ligand:         8  Surface Point:     1  Conformer:    12
#        BUDE Formal Charge: 0
#        ATOM Count: 65
#        Heavy ATOM Count: 31
@<TRIPOS>MOLECULE
ZINC61400536_1GCZ_R01_S0001_C0000_L00008_S0001_C0012_G0010_E0001
 65 68 0 0 0
SMALL
USER_CHARGES
@<TRIPOS>ATOM
       1 C1         9.9421    0.2453    4.2555 C.3       1 <0>        -0.1457 
       2 C2         9.3444   -0.7447    5.2995 C.3       1 <0>         0.1768 
       3 C3         8.2887   -1.7008    4.6458 C.3       1 <0>        -0.1798 
       4 C4        10.4910   -1.6717    5.8313 C.3       1 <0>        -0.1802 
       5 N1         8.8241    0.0340    6.4295 N.pl3     1 <0>        -0.2386 
       6 C5         7.5939    0.4006    6.6865 C.2       1 <0>        -0.0401 
       7 C6         7.5786    1.0396    7.8641 C.2       1 <0>        -0.1820 
       8 C7         8.9483    1.0263    8.3442 C.2       1 <0>         0.0520 
       9 N2         9.6112    0.4165    7.4570 N.2       1 <0>        -0.2594 
      10 C8         9.5311    1.5930    9.6102 C.3       1 <0>        -0.0741 
      11 C9         9.9354    0.5911   10.7173 C.3       1 <0>        -0.1663 
      12 C10        8.6801    1.4735   10.8966 C.3       1 <0>        -0.1657 
      13 C11        6.3431    0.2423    5.9122 C.2       1 <0>         0.5920 
      14 O1         6.3852   -0.3033    4.8221 O.2       1 <0>        -0.5202 
      15 N3         5.1766    0.7569    6.3793 N.am      1 <0>        -0.7096 
      16 C12        3.9515    0.5986    5.6049 C.3       1 <0>         0.1269 
      17 C13        2.6846    1.2790    6.2044 C.3       1 <0>         0.1209 
      18 C14        1.5353    0.8029    5.2843 C.ar      1 <0>        -0.1261 
      19 C15        1.4266    1.2907    3.9777 C.ar      1 <0>        -0.0471 
      20 C16        0.3925    0.8489    3.1493 C.ar      1 <0>        -0.1526 
      21 C17       -0.5375   -0.0973    3.5904 C.ar      1 <0>         0.1329 
      22 C18       -0.4332   -0.5750    4.8972 C.ar      1 <0>        -0.2055 
      23 C19        0.5931   -0.1288    5.7365 C.ar      1 <0>        -0.0791 
      24 O2        -1.5533   -0.5103    2.7061 O.3       1 <0>        -0.3169 
      25 C20       -1.3273   -0.5859    1.2875 C.3       1 <0>         0.0263 
      26 N4         2.6538    2.7662    6.1288 N.3       1 <0>        -0.5235 
      27 C21        3.8886    3.4329    6.6553 C.3       1 <0>         0.0085 
      28 C22        3.8475    4.9631    6.4133 C.3       1 <0>         0.0643 
      29 O3         2.6637    5.5116    7.0155 O.3       1 <0>        -0.3844 
      30 C23        1.4668    4.9396    6.4719 C.3       1 <0>         0.0641 
      31 C24        1.4452    3.4063    6.7012 C.3       1 <0>         0.0200 
      32 H1        10.7130    0.8783    4.7262 H         1 <0>         0.0684 
      33 H2         9.1453    0.8906    3.8496 H         1 <0>         0.0673 
      34 H3        10.4001   -0.3136    3.4261 H         1 <0>         0.0762 
      35 H4         7.4377   -1.1203    4.2514 H         1 <0>         0.0772 
      36 H5         8.7512   -2.2672    3.8202 H         1 <0>         0.1076 
      37 H6         7.8691   -2.4193    5.3629 H         1 <0>         0.0533 
      38 H7        10.0969   -2.3924    6.5680 H         1 <0>         0.0541 
      39 H8        11.2778   -1.0662    6.3123 H         1 <0>         0.1047 
      40 H9        10.9422   -2.2391    5.0000 H         1 <0>         0.0783 
      41 H10        6.7296    1.4962    8.3738 H         1 <0>         0.1546 
      42 H11       10.1548    2.5015    9.5498 H         1 <0>         0.1185 
      43 H12        9.7596   -0.4782   10.5144 H         1 <0>         0.0960 
      44 H13       10.8283    0.8499   11.3113 H         1 <0>         0.1015 
      45 H14        7.7034    0.9699   10.8061 H         1 <0>         0.1002 
      46 H15        8.7503    2.3110   11.6110 H         1 <0>         0.0943 
      47 H16        5.1639    1.2447    7.2503 H         1 <0>         0.4026 
      48 H17        3.7323   -0.4805    5.5073 H         1 <0>         0.0820 
      49 H18        4.0948    1.0267    4.5970 H         1 <0>         0.0826 
      50 H19        2.5536    0.9369    7.2472 H         1 <0>         0.0584 
      51 H20        2.1419    2.0149    3.5985 H         1 <0>         0.1381 
      52 H21        0.3077    1.2298    2.1356 H         1 <0>         0.1314 
      53 H22       -1.1365   -1.2982    5.2947 H         1 <0>         0.1295 
      54 H23        0.6562   -0.5105    6.7517 H         1 <0>         0.1215 
      55 H24       -0.5196   -1.3078    1.0872 H         1 <0>         0.0567 
      56 H25       -2.2419   -0.9305    0.7766 H         1 <0>         0.0562 
      57 H26       -1.0203    0.3998    0.8993 H         1 <0>         0.1014 
      58 H27        4.7945    3.0436    6.1560 H         1 <0>         0.0471 
      59 H28        4.0269    3.2855    7.7402 H         1 <0>         0.0943 
      60 H29        4.7522    5.4360    6.8366 H         1 <0>         0.0999 
      61 H30        3.8160    5.1899    5.3333 H         1 <0>         0.0621 
      62 H31        0.5715    5.4034    6.9247 H         1 <0>         0.0991 
      63 H32        1.4502    5.1566    5.3894 H         1 <0>         0.0615 
      64 H33        0.5372    2.9958    6.2252 H         1 <0>         0.0908 
      65 H34        1.3863    3.2223    7.7893 H         1 <0>         0.0448 
@<TRIPOS>BOND
       1        1        2 1        
       2        1       32 1        
       3        1       33 1        
       4        1       34 1        
       5        2        3 1        
       6        2        4 1        
       7        2        5 1        
       8        3       35 1        
       9        3       36 1        
      10        3       37 1        
      11        4       38 1        
      12        4       39 1        
      13        4       40 1        
      14        5        9 1        
      15        5        6 1        
      16        6        7 2        
      17        6       13 1        
      18        7        8 1        
      19        7       41 1        
      20        8        9 2        
      21        8       10 1        
      22       10       12 1        
      23       10       11 1        
      24       10       42 1        
      25       11       12 1        
      26       11       43 1        
      27       11       44 1        
      28       12       45 1        
      29       12       46 1        
      30       13       14 2        
      31       13       15 am       
      32       15       16 1        
      33       15       47 1        
      34       16       17 1        
      35       16       48 1        
      36       16       49 1        
      37       17       18 1        
      38       17       26 1        
      39       17       50 1        
      40       18       23 ar       
      41       18       19 ar       
      42       19       20 ar       
      43       19       51 1        
      44       20       21 ar       
      45       20       52 1        
      46       21       22 ar       
      47       21       24 1        
      48       22       23 ar       
      49       22       53 1        
      50       23       54 1        
      51       24       25 1        
      52       25       55 1        
      53       25       56 1        
      54       25       57 1        
      55       26       31 1        
      56       26       27 1        
      57       27       28 1        
      58       27       58 1        
      59       27       59 1        
      60       28       29 1        
      61       28       60 1        
      62       28       61 1        
      63       29       30 1        
      64       30       31 1        
      65       30       62 1        
      66       30       63 1        
      67       31       64 1        
      68       31       65 1        

