#        1GCZ_R01_S0001_C0000_L00008_S0001_C0012_G0010_E0001.mol2
#        Tue Jun  6 14:09:52 2017
#        Descriptor:      9    13    23    13     9    14
#        Energy - RMSD - RMSD MassCentre:     -64.0090    999.9999    999.9999
#        Receptor:       1  Surface Point:     1  Conformer:     0
#        Ligand:         8  Surface Point:     1  Conformer:    12
#        BUDE Formal Charge: 0
#        ATOM Count: 65
#        Heavy ATOM Count: 31
@<TRIPOS>MOLECULE
ZINC61400536_1GCZ_R01_S0001_C0000_L00008_S0001_C0012_G0010_E0001
 65 68 0 0 0
SMALL
USER_CHARGES
@<TRIPOS>ATOM
       1 C1        10.1115    0.4471    4.7333 C.3       1 <0>        -0.1457 
       2 C2         9.4084   -0.6685    5.5630 C.3       1 <0>         0.1768 
       3 C3         8.4394   -1.5212    4.6742 C.3       1 <0>        -0.1798 
       4 C4        10.4953   -1.6666    6.0914 C.3       1 <0>        -0.1802 
       5 N1         8.7594   -0.0431    6.7213 N.pl3     1 <0>        -0.2386 
       6 C5         7.5055    0.2952    6.8859 C.2       1 <0>        -0.0401 
       7 C6         7.3541    0.7720    8.1289 C.2       1 <0>        -0.1820 
       8 C7         8.6617    0.6847    8.7528 C.2       1 <0>         0.0520 
       9 N2         9.4240    0.1934    7.8719 N.2       1 <0>        -0.2594 
      10 C8         9.0952    1.0736   10.1400 C.3       1 <0>        -0.0741 
      11 C9         9.3810   -0.0697   11.1421 C.3       1 <0>        -0.1663 
      12 C10        8.1069    0.7904   11.2959 C.3       1 <0>        -0.1657 
      13 C11        6.3501    0.2507    5.9627 C.2       1 <0>         0.5920 
      14 O1         6.5177   -0.1454    4.8212 O.2       1 <0>        -0.5202 
      15 N3         5.1350    0.7072    6.3609 N.am      1 <0>        -0.7096 
      16 C12        4.0052    0.6626    5.4405 C.3       1 <0>         0.1269 
      17 C13        2.6742    1.2666    5.9800 C.3       1 <0>         0.1209 
      18 C14        1.6385    0.9258    4.8822 C.ar      1 <0>        -0.1261 
      19 C15        1.6726    1.5838    3.6482 C.ar      1 <0>        -0.0471 
      20 C16        0.7407    1.2639    2.6583 C.ar      1 <0>        -0.1526 
      21 C17       -0.2255    0.2744    2.8629 C.ar      1 <0>         0.1329 
      22 C18       -0.2643   -0.3736    4.0979 C.ar      1 <0>        -0.2055 
      23 C19        0.6586   -0.0507    5.0985 C.ar      1 <0>        -0.0791 
      24 O2        -1.1332   -0.0097    1.8238 O.3       1 <0>        -0.3169 
      25 C20       -0.7497    0.1025    0.4419 C.3       1 <0>         0.0263 
      26 N4         2.6409    2.7509    6.1000 N.3       1 <0>        -0.5235 
      27 C21        3.8042    3.3323    6.8449 C.3       1 <0>         0.0085 
      28 C22        3.7789    4.8814    6.8056 C.3       1 <0>         0.0643 
      29 O3         2.5313    5.3538    7.3395 O.3       1 <0>        -0.3844 
      30 C23        1.4068    4.8681    6.5944 C.3       1 <0>         0.0641 
      31 C24        1.3712    3.3181    6.6139 C.3       1 <0>         0.0200 
      32 H1        10.8202    1.0061    5.3671 H         1 <0>         0.0684 
      33 H2         9.3601    1.1466    4.3304 H         1 <0>         0.0673 
      34 H3        10.6633    0.0001    3.8932 H         1 <0>         0.0762 
      35 H4         7.6335   -0.8870    4.2680 H         1 <0>         0.0772 
      36 H5         8.9954   -1.9762    3.8375 H         1 <0>         0.1076 
      37 H6         7.9477   -2.3255    5.2380 H         1 <0>         0.0533 
      38 H7        10.0269   -2.4758    6.6770 H         1 <0>         0.0541 
      39 H8        11.2190   -1.1363    6.7334 H         1 <0>         0.1047 
      40 H9        11.0407   -2.1216    5.2476 H         1 <0>         0.0783 
      41 H10        6.4501    1.1631    8.5968 H         1 <0>         0.1546 
      42 H11        9.7150    1.9773   10.2709 H         1 <0>         0.1185 
      43 H12        9.2368   -1.1012   10.7805 H         1 <0>         0.0960 
      44 H13       10.2000    0.1011   11.8612 H         1 <0>         0.1015 
      45 H14        7.1502    0.3106   11.0308 H         1 <0>         0.1002 
      46 H15        8.0907    1.5249   12.1188 H         1 <0>         0.0943 
      47 H16        5.0215    1.0749    7.2822 H         1 <0>         0.4026 
      48 H17        3.8063   -0.3923    5.1764 H         1 <0>         0.0820 
      49 H18        4.2569    1.2199    4.5208 H         1 <0>         0.0826 
      50 H19        2.4302    0.7898    6.9468 H         1 <0>         0.0584 
      51 H20        2.4203    2.3467    3.4510 H         1 <0>         0.1381 
      52 H21        0.7668    1.7769    1.7012 H         1 <0>         0.1314 
      53 H22       -1.0021   -1.1380    4.3148 H         1 <0>         0.1295 
      54 H23        0.6109   -0.5646    6.0545 H         1 <0>         0.1215 
      55 H24        0.0807   -0.5924    0.2388 H         1 <0>         0.0567 
      56 H25       -1.5989   -0.1643   -0.2092 H         1 <0>         0.0562 
      57 H26       -0.4087    1.1287    0.2250 H         1 <0>         0.1014 
      58 H27        4.7631    3.0062    6.4025 H         1 <0>         0.0471 
      59 H28        3.8217    3.0409    7.9091 H         1 <0>         0.0943 
      60 H29        4.6272    5.2870    7.3864 H         1 <0>         0.0999 
      61 H30        3.8665    5.2501    5.7686 H         1 <0>         0.0621 
      62 H31        0.4632    5.2743    7.0021 H         1 <0>         0.0991 
      63 H32        1.5096    5.2273    5.5554 H         1 <0>         0.0615 
      64 H33        0.5252    2.9815    5.9892 H         1 <0>         0.0908 
      65 H34        1.1926    2.9915    7.6543 H         1 <0>         0.0448 
@<TRIPOS>BOND
       1        1        2 1        
       2        1       32 1        
       3        1       33 1        
       4        1       34 1        
       5        2        3 1        
       6        2        4 1        
       7        2        5 1        
       8        3       35 1        
       9        3       36 1        
      10        3       37 1        
      11        4       38 1        
      12        4       39 1        
      13        4       40 1        
      14        5        9 1        
      15        5        6 1        
      16        6        7 2        
      17        6       13 1        
      18        7        8 1        
      19        7       41 1        
      20        8        9 2        
      21        8       10 1        
      22       10       12 1        
      23       10       11 1        
      24       10       42 1        
      25       11       12 1        
      26       11       43 1        
      27       11       44 1        
      28       12       45 1        
      29       12       46 1        
      30       13       14 2        
      31       13       15 am       
      32       15       16 1        
      33       15       47 1        
      34       16       17 1        
      35       16       48 1        
      36       16       49 1        
      37       17       18 1        
      38       17       26 1        
      39       17       50 1        
      40       18       23 ar       
      41       18       19 ar       
      42       19       20 ar       
      43       19       51 1        
      44       20       21 ar       
      45       20       52 1        
      46       21       22 ar       
      47       21       24 1        
      48       22       23 ar       
      49       22       53 1        
      50       23       54 1        
      51       24       25 1        
      52       25       55 1        
      53       25       56 1        
      54       25       57 1        
      55       26       31 1        
      56       26       27 1        
      57       27       28 1        
      58       27       58 1        
      59       27       59 1        
      60       28       29 1        
      61       28       60 1        
      62       28       61 1        
      63       29       30 1        
      64       30       31 1        
      65       30       62 1        
      66       30       63 1        
      67       31       64 1        
      68       31       65 1        

