#        1GCZ_R01_S0001_C0000_L00008_S0001_C0013_G0010_E0001.mol2
#        Tue Jun  6 09:57:17 2017
#        Descriptor:     25    11    27    15    10    15
#        Energy - RMSD - RMSD MassCentre:     -66.7579    999.9999    999.9999
#        Receptor:       1  Surface Point:     1  Conformer:     0
#        Ligand:         8  Surface Point:     1  Conformer:    13
#        BUDE Formal Charge: 0
#        ATOM Count: 65
#        Heavy ATOM Count: 31
@<TRIPOS>MOLECULE
ZINC61400536_1GCZ_R01_S0001_C0000_L00008_S0001_C0013_G0010_E0001
 65 68 0 0 0
SMALL
USER_CHARGES
@<TRIPOS>ATOM
       1 C1         1.9395    1.1744    8.1627 C.3       1 <0>        -0.1457 
       2 C2         2.2965    2.5167    7.4568 C.3       1 <0>         0.1768 
       3 C3         2.6179    2.2995    5.9384 C.3       1 <0>        -0.1798 
       4 C4         1.0446    3.4589    7.4996 C.3       1 <0>        -0.1802 
       5 N1         3.3798    3.1603    8.2092 N.pl3     1 <0>        -0.2386 
       6 C5         4.6663    3.1679    7.9665 C.2       1 <0>        -0.0401 
       7 C6         5.2663    3.9411    8.8817 C.2       1 <0>        -0.1820 
       8 C7         4.2067    4.4454    9.7359 C.2       1 <0>         0.0520 
       9 N2         3.1379    3.9519    9.2752 N.2       1 <0>        -0.2594 
      10 C8         4.2835    5.3593   10.9286 C.3       1 <0>        -0.0741 
      11 C9         5.4640    5.1536   11.9069 C.3       1 <0>        -0.1663 
      12 C10        4.0372    4.7292   12.3200 C.3       1 <0>        -0.1657 
      13 C11        5.4716    2.4815    6.9325 C.2       1 <0>         0.5920 
      14 O1         4.9120    1.7470    6.1354 O.2       1 <0>        -0.5202 
      15 N3         6.8226    2.6153    6.9133 N.am      1 <0>        -0.7096 
      16 C12        7.6058    1.9300    5.8922 C.3       1 <0>         0.1269 
      17 C13        9.1502    2.1045    5.9999 C.3       1 <0>         0.1209 
      18 C14        9.6915    1.4324    4.7156 C.ar      1 <0>        -0.1261 
      19 C15        9.6553    0.0409    4.5759 C.ar      1 <0>        -0.0471 
      20 C16       10.1363   -0.5583    3.4096 C.ar      1 <0>        -0.1526 
      21 C17       10.6406    0.2077    2.3542 C.ar      1 <0>         0.1329 
      22 C18       10.6851    1.5946    2.4996 C.ar      1 <0>        -0.2055 
      23 C19       10.2155    2.2014    3.6695 C.ar      1 <0>        -0.0791 
      24 O2        11.1038   -0.4534    1.1998 O.3       1 <0>        -0.3169 
      25 C20       10.5045   -1.6803    0.7473 C.3       1 <0>         0.0263 
      26 N4         9.8048    1.3798    7.1245 N.3       1 <0>        -0.5235 
      27 C21        9.1698    1.6192    8.4608 C.3       1 <0>         0.0085 
      28 C22        9.8084    0.7260    9.5545 C.3       1 <0>         0.0643 
      29 O3        11.2245    0.9651    9.6016 O.3       1 <0>        -0.3844 
      30 C23       11.8637    0.6704    8.3526 C.3       1 <0>         0.0641 
      31 C24       11.2745    1.5506    7.2203 C.3       1 <0>         0.0200 
      32 H1         1.6747    1.3557    9.2179 H         1 <0>         0.0684 
      33 H2         2.8004    0.4866    8.1208 H         1 <0>         0.0673 
      34 H3         1.0843    0.7001    7.6589 H         1 <0>         0.0762 
      35 H4         3.5002    1.6478    5.8224 H         1 <0>         0.0772 
      36 H5         1.7565    1.8322    5.4324 H         1 <0>         0.1076 
      37 H6         2.8541    3.2380    5.4188 H         1 <0>         0.0533 
      38 H7         1.2631    4.4171    6.9982 H         1 <0>         0.0541 
      39 H8         0.7568    3.6623    8.5449 H         1 <0>         0.1047 
      40 H9         0.1911    2.9863    6.9851 H         1 <0>         0.0783 
      41 H10        6.3299    4.1544    8.9929 H         1 <0>         0.1546 
      42 H11        3.9376    6.4020   10.8243 H         1 <0>         0.1185 
      43 H12        6.1711    4.3400   11.6754 H         1 <0>         0.0960 
      44 H13        5.8793    6.0631   12.3731 H         1 <0>         0.1015 
      45 H14        3.8315    3.6465   12.3501 H         1 <0>         0.1002 
      46 H15        3.5175    5.3612   13.0597 H         1 <0>         0.0943 
      47 H16        7.2743    3.1804    7.6015 H         1 <0>         0.4026 
      48 H17        7.2990    2.3072    4.8995 H         1 <0>         0.0820 
      49 H18        7.4048    0.8451    5.9401 H         1 <0>         0.0826 
      50 H19        9.3873    3.1833    6.0382 H         1 <0>         0.0584 
      51 H20        9.2554   -0.5825    5.3705 H         1 <0>         0.1381 
      52 H21       10.1097   -1.6390    3.3029 H         1 <0>         0.1314 
      53 H22       11.0799    2.2346    1.7185 H         1 <0>         0.1295 
      54 H23       10.2609    3.2826    3.7650 H         1 <0>         0.1215 
      55 H24        9.4420   -1.5015    0.5176 H         1 <0>         0.0567 
      56 H25       11.0082   -2.0319   -0.1687 H         1 <0>         0.0562 
      57 H26       10.5678   -2.4474    1.5373 H         1 <0>         0.1014 
      58 H27        8.0893    1.3884    8.4349 H         1 <0>         0.0471 
      59 H28        9.2707    2.6635    8.8033 H         1 <0>         0.0943 
      60 H29        9.3462    0.9421   10.5348 H         1 <0>         0.0999 
      61 H30        9.6513   -0.3435    9.3302 H         1 <0>         0.0621 
      62 H31       12.9553    0.8272    8.4258 H         1 <0>         0.0991 
      63 H32       11.6889   -0.3963    8.1273 H         1 <0>         0.0615 
      64 H33       11.7528    1.2596    6.2685 H         1 <0>         0.0908 
      65 H34       11.5301    2.6039    7.4354 H         1 <0>         0.0448 
@<TRIPOS>BOND
       1        1        2 1        
       2        1       32 1        
       3        1       33 1        
       4        1       34 1        
       5        2        3 1        
       6        2        4 1        
       7        2        5 1        
       8        3       35 1        
       9        3       36 1        
      10        3       37 1        
      11        4       38 1        
      12        4       39 1        
      13        4       40 1        
      14        5        9 1        
      15        5        6 1        
      16        6        7 2        
      17        6       13 1        
      18        7        8 1        
      19        7       41 1        
      20        8        9 2        
      21        8       10 1        
      22       10       12 1        
      23       10       11 1        
      24       10       42 1        
      25       11       12 1        
      26       11       43 1        
      27       11       44 1        
      28       12       45 1        
      29       12       46 1        
      30       13       14 2        
      31       13       15 am       
      32       15       16 1        
      33       15       47 1        
      34       16       17 1        
      35       16       48 1        
      36       16       49 1        
      37       17       18 1        
      38       17       26 1        
      39       17       50 1        
      40       18       23 ar       
      41       18       19 ar       
      42       19       20 ar       
      43       19       51 1        
      44       20       21 ar       
      45       20       52 1        
      46       21       22 ar       
      47       21       24 1        
      48       22       23 ar       
      49       22       53 1        
      50       23       54 1        
      51       24       25 1        
      52       25       55 1        
      53       25       56 1        
      54       25       57 1        
      55       26       31 1        
      56       26       27 1        
      57       27       28 1        
      58       27       58 1        
      59       27       59 1        
      60       28       29 1        
      61       28       60 1        
      62       28       61 1        
      63       29       30 1        
      64       30       31 1        
      65       30       62 1        
      66       30       63 1        
      67       31       64 1        
      68       31       65 1        

