#        1GCZ_R01_S0001_C0000_L00008_S0001_C0013_G0010_E0001.mol2
#        Tue Jun  6 14:09:54 2017
#        Descriptor:     15    12    20    15    10    15
#        Energy - RMSD - RMSD MassCentre:     -65.1391    999.9999    999.9999
#        Receptor:       1  Surface Point:     1  Conformer:     0
#        Ligand:         8  Surface Point:     1  Conformer:    13
#        BUDE Formal Charge: 0
#        ATOM Count: 65
#        Heavy ATOM Count: 31
@<TRIPOS>MOLECULE
ZINC61400536_1GCZ_R01_S0001_C0000_L00008_S0001_C0013_G0010_E0001
 65 68 0 0 0
SMALL
USER_CHARGES
@<TRIPOS>ATOM
       1 C1        11.5075    3.9352    5.1079 C.3       1 <0>        -0.1457 
       2 C2        11.3980    2.3865    5.2374 C.3       1 <0>         0.1768 
       3 C3        10.4777    1.7805    4.1230 C.3       1 <0>        -0.1798 
       4 C4        12.8162    1.7587    5.0104 C.3       1 <0>        -0.1802 
       5 N1        10.9690    2.0663    6.6038 N.pl3     1 <0>        -0.2386 
       6 C5         9.7733    1.7744    7.0500 C.2       1 <0>        -0.0401 
       7 C6         9.8659    1.4856    8.3551 C.2       1 <0>        -0.1820 
       8 C7        11.2717    1.6110    8.6937 C.2       1 <0>         0.0520 
       9 N2        11.8493    1.9446    7.6197 N.2       1 <0>        -0.2594 
      10 C8        11.9673    1.4058   10.0119 C.3       1 <0>        -0.0741 
      11 C9        11.2467    1.9150   11.2826 C.3       1 <0>        -0.1663 
      12 C10       12.4836    2.6675   10.7436 C.3       1 <0>        -0.1657 
      13 C11        8.4562    1.7492    6.3763 C.2       1 <0>         0.5920 
      14 O1         8.3863    2.0580    5.1983 O.2       1 <0>        -0.5202 
      15 N3         7.3322    1.4511    7.0771 N.am      1 <0>        -0.7096 
      16 C12        6.0394    1.4342    6.4033 C.3       1 <0>         0.1269 
      17 C13        4.8103    1.1390    7.3140 C.3       1 <0>         0.1209 
      18 C14        3.6317    1.0116    6.3196 C.ar      1 <0>        -0.1261 
      19 C15        3.1314    2.1431    5.6666 C.ar      1 <0>        -0.0471 
      20 C16        2.0739    2.0191    4.7626 C.ar      1 <0>        -0.1526 
      21 C17        1.5083    0.7738    4.4728 C.ar      1 <0>         0.1329 
      22 C18        2.0021   -0.3520    5.1327 C.ar      1 <0>        -0.2055 
      23 C19        3.0536   -0.2343    6.0479 C.ar      1 <0>        -0.0791 
      24 O2         0.4494    0.7112    3.5459 O.3       1 <0>        -0.3169 
      25 C20        0.3731    1.6188    2.4325 C.3       1 <0>         0.0263 
      26 N4         4.4186    2.2342    8.2445 N.3       1 <0>        -0.5235 
      27 C21        5.5483    2.7712    9.0700 C.3       1 <0>         0.0085 
      28 C22        5.1007    3.9979    9.9046 C.3       1 <0>         0.0643 
      29 O3         3.9817    3.6338   10.7292 O.3       1 <0>        -0.3844 
      30 C23        2.8620    3.1869    9.9532 C.3       1 <0>         0.0641 
      31 C24        3.2482    1.9459    9.1077 C.3       1 <0>         0.0200 
      32 H1        12.1932    4.3356    5.8735 H         1 <0>         0.0684 
      33 H2        10.5138    4.3950    5.2392 H         1 <0>         0.0673 
      34 H3        11.8916    4.2035    4.1127 H         1 <0>         0.0762 
      35 H4         9.4503    2.1698    4.2203 H         1 <0>         0.0772 
      36 H5        10.8687    2.0425    3.1256 H         1 <0>         0.1076 
      37 H6        10.4029    0.6865    4.1865 H         1 <0>         0.0533 
      38 H7        12.7703    0.6590    5.0868 H         1 <0>         0.0541 
      39 H8        13.5256    2.1382    5.7652 H         1 <0>         0.1047 
      40 H9        13.1954    2.0201    4.0082 H         1 <0>         0.0783 
      41 H10        9.0655    1.2206    9.0466 H         1 <0>         0.1546 
      42 H11       12.5850    0.5025   10.1537 H         1 <0>         0.1185 
      43 H12       10.2710    2.4088   11.1419 H         1 <0>         0.0960 
      44 H13       11.3771    1.3106   12.1962 H         1 <0>         0.1015 
      45 H14       12.2989    3.6394   10.2569 H         1 <0>         0.1002 
      46 H15       13.4257    2.5571   11.3065 H         1 <0>         0.0943 
      47 H16        7.3958    1.2479    8.0526 H         1 <0>         0.4026 
      48 H17        6.0615    0.6582    5.6162 H         1 <0>         0.0820 
      49 H18        5.8567    2.4161    5.9319 H         1 <0>         0.0826 
      50 H19        4.9922    0.2003    7.8684 H         1 <0>         0.0584 
      51 H20        3.5585    3.1234    5.8573 H         1 <0>         0.1381 
      52 H21        1.6847    2.8985    4.2576 H         1 <0>         0.1314 
      53 H22        1.5901   -1.3393    4.9564 H         1 <0>         0.1295 
      54 H23        3.4227   -1.1221    6.5537 H         1 <0>         0.1215 
      55 H24        1.2633    1.4880    1.7967 H         1 <0>         0.0567 
      56 H25       -0.5247    1.4030    1.8294 H         1 <0>         0.0562 
      57 H26        0.3504    2.6608    2.7933 H         1 <0>         0.1014 
      58 H27        6.3893    3.0957    8.4304 H         1 <0>         0.0471 
      59 H28        5.9494    2.0302    9.7828 H         1 <0>         0.0943 
      60 H29        5.9403    4.3567   10.5273 H         1 <0>         0.0999 
      61 H30        4.7835    4.8264    9.2472 H         1 <0>         0.0621 
      62 H31        2.0037    2.9480   10.6073 H         1 <0>         0.0991 
      63 H32        2.5607    4.0146    9.2874 H         1 <0>         0.0615 
      64 H33        2.3796    1.6635    8.4871 H         1 <0>         0.0908 
      65 H34        3.4715    1.1142    9.8002 H         1 <0>         0.0448 
@<TRIPOS>BOND
       1        1        2 1        
       2        1       32 1        
       3        1       33 1        
       4        1       34 1        
       5        2        3 1        
       6        2        4 1        
       7        2        5 1        
       8        3       35 1        
       9        3       36 1        
      10        3       37 1        
      11        4       38 1        
      12        4       39 1        
      13        4       40 1        
      14        5        9 1        
      15        5        6 1        
      16        6        7 2        
      17        6       13 1        
      18        7        8 1        
      19        7       41 1        
      20        8        9 2        
      21        8       10 1        
      22       10       12 1        
      23       10       11 1        
      24       10       42 1        
      25       11       12 1        
      26       11       43 1        
      27       11       44 1        
      28       12       45 1        
      29       12       46 1        
      30       13       14 2        
      31       13       15 am       
      32       15       16 1        
      33       15       47 1        
      34       16       17 1        
      35       16       48 1        
      36       16       49 1        
      37       17       18 1        
      38       17       26 1        
      39       17       50 1        
      40       18       23 ar       
      41       18       19 ar       
      42       19       20 ar       
      43       19       51 1        
      44       20       21 ar       
      45       20       52 1        
      46       21       22 ar       
      47       21       24 1        
      48       22       23 ar       
      49       22       53 1        
      50       23       54 1        
      51       24       25 1        
      52       25       55 1        
      53       25       56 1        
      54       25       57 1        
      55       26       31 1        
      56       26       27 1        
      57       27       28 1        
      58       27       58 1        
      59       27       59 1        
      60       28       29 1        
      61       28       60 1        
      62       28       61 1        
      63       29       30 1        
      64       30       31 1        
      65       30       62 1        
      66       30       63 1        
      67       31       64 1        
      68       31       65 1        

