#        1GCZ_R01_S0001_C0000_L00008_S0001_C0014_G0010_E0001.mol2
#        Tue Jun  6 09:57:18 2017
#        Descriptor:     23    13    28    13     8    13
#        Energy - RMSD - RMSD MassCentre:     -68.2172    999.9999    999.9999
#        Receptor:       1  Surface Point:     1  Conformer:     0
#        Ligand:         8  Surface Point:     1  Conformer:    14
#        BUDE Formal Charge: 0
#        ATOM Count: 65
#        Heavy ATOM Count: 31
@<TRIPOS>MOLECULE
ZINC61400536_1GCZ_R01_S0001_C0000_L00008_S0001_C0014_G0010_E0001
 65 68 0 0 0
SMALL
USER_CHARGES
@<TRIPOS>ATOM
       1 C1        -0.3403    0.0432    5.2891 C.3       1 <0>        -0.1457 
       2 C2         0.3474    1.0346    4.3035 C.3       1 <0>         0.1768 
       3 C3         0.8939    0.2961    3.0338 C.3       1 <0>        -0.1798 
       4 C4        -0.7240    2.0518    3.7799 C.3       1 <0>        -0.1802 
       5 N1         1.3694    1.7858    5.0419 N.pl3     1 <0>        -0.2386 
       6 C5         2.6627    1.5903    5.0977 C.2       1 <0>        -0.0401 
       7 C6         3.2074    2.5629    5.8411 C.2       1 <0>        -0.1820 
       8 C7         2.1083    3.4203    6.2455 C.2       1 <0>         0.0520 
       9 N2         1.0728    2.9056    5.7345 N.2       1 <0>        -0.2594 
      10 C8         2.1183    4.6668    7.0880 C.3       1 <0>        -0.0741 
      11 C9         3.3695    5.5725    7.0025 C.3       1 <0>        -0.1663 
      12 C10        3.1211    4.7175    8.2650 C.3       1 <0>        -0.1657 
      13 C11        3.5175    0.5263    4.5265 C.2       1 <0>         0.5920 
      14 O1         2.9974   -0.3746    3.8895 O.2       1 <0>        -0.5202 
      15 N3         4.8542    0.5174    4.7649 N.am      1 <0>        -0.7096 
      16 C12        5.6854   -0.5391    4.2005 C.3       1 <0>         0.1269 
      17 C13        7.1939   -0.4861    4.5864 C.3       1 <0>         0.1209 
      18 C14        7.8391   -1.5947    3.7210 C.ar      1 <0>        -0.1261 
      19 C15        7.6048   -2.9435    4.0089 C.ar      1 <0>        -0.0471 
      20 C16        8.1823   -3.9387    3.2172 C.ar      1 <0>        -0.1526 
      21 C17        8.9823   -3.6181    2.1163 C.ar      1 <0>         0.1329 
      22 C18        9.2228   -2.2725    1.8370 C.ar      1 <0>        -0.2055 
      23 C19        8.6571   -1.2700    2.6321 C.ar      1 <0>        -0.0791 
      24 O2         9.5304   -4.6658    1.3507 O.3       1 <0>        -0.3169 
      25 C20        8.8314   -5.9107    1.1746 C.3       1 <0>         0.0263 
      26 N4         7.5135   -0.8548    5.9938 N.3       1 <0>        -0.5235 
      27 C21        6.6984   -0.1261    7.0189 C.3       1 <0>         0.0085 
      28 C22        6.9808   -0.6617    8.4455 C.3       1 <0>         0.0643 
      29 O3         8.3859   -0.5560    8.7275 O.3       1 <0>        -0.3844 
      30 C23        9.1805   -1.3080    7.8009 C.3       1 <0>         0.0641 
      31 C24        8.9508   -0.8021    6.3534 C.3       1 <0>         0.0200 
      32 H1        -0.7553    0.5889    6.1531 H         1 <0>         0.0684 
      33 H2         0.3924   -0.6978    5.6498 H         1 <0>         0.0673 
      34 H3        -1.1575   -0.4881    4.7793 H         1 <0>         0.0762 
      35 H4         1.6662   -0.4377    3.3195 H         1 <0>         0.0772 
      36 H5         0.0721   -0.2287    2.5185 H         1 <0>         0.1076 
      37 H6         1.3664    0.9819    2.3176 H         1 <0>         0.0533 
      38 H7        -0.2688    2.7638    3.0706 H         1 <0>         0.0541 
      39 H8        -1.1561    2.6171    4.6230 H         1 <0>         0.1047 
      40 H9        -1.5375    1.5184    3.2601 H         1 <0>         0.0783 
      41 H10        4.2546    2.6992    6.1128 H         1 <0>         0.1546 
      42 H11        1.1671    5.1973    7.2663 H         1 <0>         0.1185 
      43 H12        4.1836    5.2413    6.3370 H         1 <0>         0.0960 
      44 H13        3.1953    6.6590    7.0815 H         1 <0>         0.1015 
      45 H14        3.7736    3.8399    8.4052 H         1 <0>         0.1002 
      46 H15        2.7852    5.2454    9.1734 H         1 <0>         0.0943 
      47 H16        5.2616    1.2334    5.3290 H         1 <0>         0.4026 
      48 H17        5.6243   -0.4857    3.0981 H         1 <0>         0.0820 
      49 H18        5.3073   -1.5223    4.5322 H         1 <0>         0.0826 
      50 H19        7.5908    0.5166    4.3444 H         1 <0>         0.0584 
      51 H20        6.9754   -3.2267    4.8476 H         1 <0>         0.1381 
      52 H21        8.0015   -4.9858    3.4428 H         1 <0>         0.1314 
      53 H22        9.8476   -1.9687    1.0045 H         1 <0>         0.1295 
      54 H23        8.8582   -0.2279    2.4001 H         1 <0>         0.1215 
      55 H24        7.8693   -5.7184    0.6736 H         1 <0>         0.0567 
      56 H25        9.4263   -6.5926    0.5442 H         1 <0>         0.0562 
      57 H26        8.6294   -6.3743    2.1548 H         1 <0>         0.1014 
      58 H27        5.6168   -0.2489    6.8279 H         1 <0>         0.0471 
      59 H28        6.9037    0.9580    7.0393 H         1 <0>         0.0943 
      60 H29        6.3930   -0.0896    9.1861 H         1 <0>         0.0999 
      61 H30        6.6960   -1.7251    8.5300 H         1 <0>         0.0621 
      62 H31       10.2527   -1.2401    8.0608 H         1 <0>         0.0991 
      63 H32        8.8791   -2.3673    7.8797 H         1 <0>         0.0615 
      64 H33        9.5373   -1.4366    5.6657 H         1 <0>         0.0908 
      65 H34        9.3303    0.2336    6.2870 H         1 <0>         0.0448 
@<TRIPOS>BOND
       1        1        2 1        
       2        1       32 1        
       3        1       33 1        
       4        1       34 1        
       5        2        3 1        
       6        2        4 1        
       7        2        5 1        
       8        3       35 1        
       9        3       36 1        
      10        3       37 1        
      11        4       38 1        
      12        4       39 1        
      13        4       40 1        
      14        5        9 1        
      15        5        6 1        
      16        6        7 2        
      17        6       13 1        
      18        7        8 1        
      19        7       41 1        
      20        8        9 2        
      21        8       10 1        
      22       10       12 1        
      23       10       11 1        
      24       10       42 1        
      25       11       12 1        
      26       11       43 1        
      27       11       44 1        
      28       12       45 1        
      29       12       46 1        
      30       13       14 2        
      31       13       15 am       
      32       15       16 1        
      33       15       47 1        
      34       16       17 1        
      35       16       48 1        
      36       16       49 1        
      37       17       18 1        
      38       17       26 1        
      39       17       50 1        
      40       18       23 ar       
      41       18       19 ar       
      42       19       20 ar       
      43       19       51 1        
      44       20       21 ar       
      45       20       52 1        
      46       21       22 ar       
      47       21       24 1        
      48       22       23 ar       
      49       22       53 1        
      50       23       54 1        
      51       24       25 1        
      52       25       55 1        
      53       25       56 1        
      54       25       57 1        
      55       26       31 1        
      56       26       27 1        
      57       27       28 1        
      58       27       58 1        
      59       27       59 1        
      60       28       29 1        
      61       28       60 1        
      62       28       61 1        
      63       29       30 1        
      64       30       31 1        
      65       30       62 1        
      66       30       63 1        
      67       31       64 1        
      68       31       65 1        

