#        1GCZ_R01_S0001_C0000_L00008_S0001_C0014_G0010_E0001.mol2
#        Tue Jun  6 14:09:56 2017
#        Descriptor:     24    12    28    15    10    15
#        Energy - RMSD - RMSD MassCentre:     -64.0158    999.9999    999.9999
#        Receptor:       1  Surface Point:     1  Conformer:     0
#        Ligand:         8  Surface Point:     1  Conformer:    14
#        BUDE Formal Charge: 0
#        ATOM Count: 65
#        Heavy ATOM Count: 31
@<TRIPOS>MOLECULE
ZINC61400536_1GCZ_R01_S0001_C0000_L00008_S0001_C0014_G0010_E0001
 65 68 0 0 0
SMALL
USER_CHARGES
@<TRIPOS>ATOM
       1 C1         1.7927    1.1913    7.9133 C.3       1 <0>        -0.1457 
       2 C2         2.2004    2.4064    7.0275 C.3       1 <0>         0.1768 
       3 C3         2.6581    1.9490    5.6002 C.3       1 <0>        -0.1798 
       4 C4         0.9421    3.3138    6.8039 C.3       1 <0>        -0.1802 
       5 N1         3.2068    3.1901    7.7534 N.pl3     1 <0>        -0.2386 
       6 C5         4.5098    3.1870    7.6255 C.2       1 <0>        -0.0401 
       7 C6         5.0192    4.1142    8.4477 C.2       1 <0>        -0.1820 
       8 C7         3.8834    4.7283    9.1108 C.2       1 <0>         0.0520 
       9 N2         2.8641    4.1411    8.6477 N.2       1 <0>        -0.2594 
      10 C8         3.8457    5.8281   10.1367 C.3       1 <0>        -0.0741 
      11 C9         4.9426    6.9158   10.0534 C.3       1 <0>        -0.1663 
      12 C10        4.9865    5.8610   11.1813 C.3       1 <0>        -0.1657 
      13 C11        5.4099    2.3579    6.7940 C.2       1 <0>         0.5920 
      14 O1         4.9299    1.4892    6.0849 O.2       1 <0>        -0.5202 
      15 N3         6.7561    2.5176    6.8703 N.am      1 <0>        -0.7096 
      16 C12        7.6330    1.6912    6.0495 C.3       1 <0>         0.1269 
      17 C13        9.1602    1.9164    6.2602 C.3       1 <0>         0.1209 
      18 C14        9.8196    1.0540    5.1577 C.ar      1 <0>        -0.1261 
      19 C15        9.8073   -0.3419    5.2490 C.ar      1 <0>        -0.0471 
      20 C16       10.3957   -1.1142    4.2450 C.ar      1 <0>        -0.1526 
      21 C17       10.9860   -0.5217    3.1247 C.ar      1 <0>         0.1329 
      22 C18       11.0060    0.8709    3.0404 C.ar      1 <0>        -0.2055 
      23 C19       10.4288    1.6516    4.0476 C.ar      1 <0>        -0.0791 
      24 O2        11.5559   -1.3535    2.1411 O.3       1 <0>        -0.3169 
      25 C20       11.0096   -2.6517    1.8488 C.3       1 <0>         0.0263 
      26 N4         9.7175    1.4026    7.5424 N.3       1 <0>        -0.5235 
      27 C21        8.9636    1.8448    8.7599 C.3       1 <0>         0.0085 
      28 C22        9.5091    1.1593   10.0382 C.3       1 <0>         0.0643 
      29 O3        10.9133    1.4353   10.1677 O.3       1 <0>        -0.3844 
      30 C23       11.6640    0.9531    9.0455 C.3       1 <0>         0.0641 
      31 C24       11.1712    1.6205    7.7356 C.3       1 <0>         0.0200 
      32 H1         1.4332    1.5383    8.8966 H         1 <0>         0.0684 
      33 H2         2.6596    0.5260    8.0615 H         1 <0>         0.0673 
      34 H3         0.9899    0.6209    7.4233 H         1 <0>         0.0762 
      35 H4         3.5526    1.3074    5.6714 H         1 <0>         0.0772 
      36 H5         1.8493    1.3849    5.1062 H         1 <0>         0.1076 
      37 H6         2.9322    2.7939    4.9541 H         1 <0>         0.0533 
      38 H7         1.1967    4.1809    6.1709 H         1 <0>         0.0541 
      39 H8         0.5603    3.6804    7.7719 H         1 <0>         0.1047 
      40 H9         0.1419    2.7433    6.3032 H         1 <0>         0.0783 
      41 H10        6.0668    4.3673    8.6138 H         1 <0>         0.1546 
      42 H11        2.8669    6.1772   10.5082 H         1 <0>         0.1185 
      43 H12        5.6931    6.8107    9.2527 H         1 <0>         0.0960 
      44 H13        4.6393    7.9406   10.3267 H         1 <0>         0.1015 
      45 H14        5.7620    5.0815   11.1006 H         1 <0>         0.1002 
      46 H15        4.7131    6.1962   12.1961 H         1 <0>         0.0943 
      47 H16        7.1398    3.1988    7.4913 H         1 <0>         0.4026 
      48 H17        7.4131    1.8922    4.9849 H         1 <0>         0.0820 
      49 H18        7.4374    0.6248    6.2596 H         1 <0>         0.0826 
      50 H19        9.3840    2.9919    6.1388 H         1 <0>         0.0584 
      51 H20        9.3432   -0.8345    6.0986 H         1 <0>         0.1381 
      52 H21       10.3875   -2.1980    4.3179 H         1 <0>         0.1314 
      53 H22       11.4638    1.3820    2.2009 H         1 <0>         0.1295 
      54 H23       10.4566    2.7345    3.9654 H         1 <0>         0.1215 
      55 H24        9.9705   -2.5377    1.5012 H         1 <0>         0.0567 
      56 H25       11.5960   -3.1381    1.0514 H         1 <0>         0.0562 
      57 H26       11.0083   -3.2762    2.7580 H         1 <0>         0.1014 
      58 H27        7.8916    1.5882    8.6791 H         1 <0>         0.0471 
      59 H28        9.0249    2.9333    8.9312 H         1 <0>         0.0943 
      60 H29        8.9593    1.5236   10.9250 H         1 <0>         0.0999 
      61 H30        9.3814    0.0641    9.9824 H         1 <0>         0.0621 
      62 H31       12.7434    1.1448    9.1860 H         1 <0>         0.0991 
      63 H32       11.5187   -0.1399    8.9866 H         1 <0>         0.0615 
      64 H33       11.7351    1.1874    6.8907 H         1 <0>         0.0908 
      65 H34       11.3979    2.7005    7.7937 H         1 <0>         0.0448 
@<TRIPOS>BOND
       1        1        2 1        
       2        1       32 1        
       3        1       33 1        
       4        1       34 1        
       5        2        3 1        
       6        2        4 1        
       7        2        5 1        
       8        3       35 1        
       9        3       36 1        
      10        3       37 1        
      11        4       38 1        
      12        4       39 1        
      13        4       40 1        
      14        5        9 1        
      15        5        6 1        
      16        6        7 2        
      17        6       13 1        
      18        7        8 1        
      19        7       41 1        
      20        8        9 2        
      21        8       10 1        
      22       10       12 1        
      23       10       11 1        
      24       10       42 1        
      25       11       12 1        
      26       11       43 1        
      27       11       44 1        
      28       12       45 1        
      29       12       46 1        
      30       13       14 2        
      31       13       15 am       
      32       15       16 1        
      33       15       47 1        
      34       16       17 1        
      35       16       48 1        
      36       16       49 1        
      37       17       18 1        
      38       17       26 1        
      39       17       50 1        
      40       18       23 ar       
      41       18       19 ar       
      42       19       20 ar       
      43       19       51 1        
      44       20       21 ar       
      45       20       52 1        
      46       21       22 ar       
      47       21       24 1        
      48       22       23 ar       
      49       22       53 1        
      50       23       54 1        
      51       24       25 1        
      52       25       55 1        
      53       25       56 1        
      54       25       57 1        
      55       26       31 1        
      56       26       27 1        
      57       27       28 1        
      58       27       58 1        
      59       27       59 1        
      60       28       29 1        
      61       28       60 1        
      62       28       61 1        
      63       29       30 1        
      64       30       31 1        
      65       30       62 1        
      66       30       63 1        
      67       31       64 1        
      68       31       65 1        

