#        1GCZ_R01_S0001_C0000_L00008_S0001_C0015_G0010_E0001.mol2
#        Tue Jun  6 09:57:19 2017
#        Descriptor:     27    18    21     7    10    15
#        Energy - RMSD - RMSD MassCentre:     -67.2419    999.9999    999.9999
#        Receptor:       1  Surface Point:     1  Conformer:     0
#        Ligand:         8  Surface Point:     1  Conformer:    15
#        BUDE Formal Charge: 0
#        ATOM Count: 65
#        Heavy ATOM Count: 31
@<TRIPOS>MOLECULE
ZINC61400536_1GCZ_R01_S0001_C0000_L00008_S0001_C0015_G0010_E0001
 65 68 0 0 0
SMALL
USER_CHARGES
@<TRIPOS>ATOM
       1 C1        -2.4340    5.4963   10.9229 C.3       1 <0>        -0.1457 
       2 C2        -2.7001    5.5488    9.3887 C.3       1 <0>         0.1768 
       3 C3        -3.9030    4.6301    8.9825 C.3       1 <0>        -0.1798 
       4 C4        -3.1233    7.0067    8.9986 C.3       1 <0>        -0.1802 
       5 N1        -1.4476    5.2337    8.6916 N.pl3     1 <0>        -0.2386 
       6 C5        -1.0538    4.1008    8.1669 C.2       1 <0>        -0.0401 
       7 C6         0.1312    4.2971    7.5731 C.2       1 <0>        -0.1820 
       8 C7         0.4468    5.7008    7.7647 C.2       1 <0>         0.0520 
       9 N2        -0.5241    6.1791    8.4180 N.2       1 <0>        -0.2594 
      10 C8         1.6470    6.4886    7.3148 C.3       1 <0>        -0.0741 
      11 C9         2.1138    7.6523    8.2210 C.3       1 <0>        -0.1663 
      12 C10        1.4092    7.9540    6.8796 C.3       1 <0>        -0.1657 
      13 C11       -1.6704    2.7558    8.1653 C.2       1 <0>         0.5920 
      14 O1        -2.7281    2.5874    8.7491 O.2       1 <0>        -0.5202 
      15 N3        -1.0342    1.7095    7.5789 N.am      1 <0>        -0.7096 
      16 C12       -1.6498    0.3878    7.5880 C.3       1 <0>         0.1269 
      17 C13       -0.8066   -0.7510    6.9403 C.3       1 <0>         0.1209 
      18 C14       -0.6751   -0.3213    5.4598 C.ar      1 <0>        -0.1261 
      19 C15       -1.7813   -0.3788    4.6053 C.ar      1 <0>        -0.0471 
      20 C16       -1.6576    0.0202    3.2725 C.ar      1 <0>        -0.1526 
      21 C17       -0.4461    0.5025    2.7680 C.ar      1 <0>         0.1329 
      22 C18        0.6583    0.5495    3.6192 C.ar      1 <0>        -0.2055 
      23 C19        0.5452    0.1410    4.9525 C.ar      1 <0>        -0.0791 
      24 O2        -0.3856    0.8977    1.4174 O.3       1 <0>        -0.3169 
      25 C20       -1.1776    0.2457    0.4092 C.3       1 <0>         0.0263 
      26 N4        -1.4548   -2.0915    6.9010 N.3       1 <0>        -0.5235 
      27 C21       -0.5928   -3.1652    6.3485 C.3       1 <0>         0.0085 
      28 C22        0.0611   -3.9953    7.4821 C.3       1 <0>         0.0643 
      29 O3         0.2428   -3.1646    8.6405 O.3       1 <0>        -0.3844 
      30 C23       -1.0046   -2.8112    9.2525 C.3       1 <0>         0.0641 
      31 C24       -2.0801   -2.5320    8.1710 C.3       1 <0>         0.0200 
      32 H1        -1.6133    6.1821   11.1925 H         1 <0>         0.0684 
      33 H2        -2.1592    4.4712   11.2223 H         1 <0>         0.0673 
      34 H3        -3.3395    5.7935   11.4723 H         1 <0>         0.0762 
      35 H4        -3.6779    3.5765    9.2189 H         1 <0>         0.0772 
      36 H5        -4.8124    4.9346    9.5271 H         1 <0>         0.1076 
      37 H6        -4.1181    4.6680    7.9060 H         1 <0>         0.0533 
      38 H7        -3.3282    7.0747    7.9166 H         1 <0>         0.0541 
      39 H8        -2.3191    7.7176    9.2534 H         1 <0>         0.1047 
      40 H9        -4.0371    7.2993    9.5425 H         1 <0>         0.0783 
      41 H10        0.7568    3.5685    7.0567 H         1 <0>         0.1546 
      42 H11        2.4524    5.9679    6.7689 H         1 <0>         0.1185 
      43 H12        1.5291    7.8405    9.1365 H         1 <0>         0.0960 
      44 H13        3.2018    7.8266    8.2746 H         1 <0>         0.1015 
      45 H14        0.3751    8.3321    6.9373 H         1 <0>         0.1002 
      46 H15        2.0369    8.3286    6.0535 H         1 <0>         0.0943 
      47 H16       -0.1452    1.8494    7.1466 H         1 <0>         0.4026 
      48 H17       -2.6088    0.4411    7.0408 H         1 <0>         0.0820 
      49 H18       -1.8495    0.0815    8.6301 H         1 <0>         0.0826 
      50 H19        0.1736   -0.8044    7.4482 H         1 <0>         0.0584 
      51 H20       -2.7410   -0.7339    4.9694 H         1 <0>         0.1381 
      52 H21       -2.5166   -0.0268    2.6092 H         1 <0>         0.1314 
      53 H22        1.6247    0.9008    3.2757 H         1 <0>         0.1295 
      54 H23        1.4172    0.1826    5.5991 H         1 <0>         0.1215 
      55 H24       -2.2452    0.3671    0.6523 H         1 <0>         0.0567 
      56 H25       -0.9870    0.7029   -0.5762 H         1 <0>         0.0562 
      57 H26       -0.9451   -0.8322    0.3823 H         1 <0>         0.1014 
      58 H27        0.2235   -2.7448    5.7336 H         1 <0>         0.0471 
      59 H28       -1.1461   -3.8765    5.7115 H         1 <0>         0.0943 
      60 H29       -0.5740   -4.8663    7.7257 H         1 <0>         0.0999 
      61 H30        1.0527   -4.3702    7.1734 H         1 <0>         0.0621 
      62 H31       -1.3481   -3.6134    9.9308 H         1 <0>         0.0991 
      63 H32       -0.8382   -1.9032    9.8584 H         1 <0>         0.0615 
      64 H33       -2.7601   -1.7492    8.5504 H         1 <0>         0.0908 
      65 H34       -2.6613   -3.4591    8.0170 H         1 <0>         0.0448 
@<TRIPOS>BOND
       1        1        2 1        
       2        1       32 1        
       3        1       33 1        
       4        1       34 1        
       5        2        3 1        
       6        2        4 1        
       7        2        5 1        
       8        3       35 1        
       9        3       36 1        
      10        3       37 1        
      11        4       38 1        
      12        4       39 1        
      13        4       40 1        
      14        5        9 1        
      15        5        6 1        
      16        6        7 2        
      17        6       13 1        
      18        7        8 1        
      19        7       41 1        
      20        8        9 2        
      21        8       10 1        
      22       10       12 1        
      23       10       11 1        
      24       10       42 1        
      25       11       12 1        
      26       11       43 1        
      27       11       44 1        
      28       12       45 1        
      29       12       46 1        
      30       13       14 2        
      31       13       15 am       
      32       15       16 1        
      33       15       47 1        
      34       16       17 1        
      35       16       48 1        
      36       16       49 1        
      37       17       18 1        
      38       17       26 1        
      39       17       50 1        
      40       18       23 ar       
      41       18       19 ar       
      42       19       20 ar       
      43       19       51 1        
      44       20       21 ar       
      45       20       52 1        
      46       21       22 ar       
      47       21       24 1        
      48       22       23 ar       
      49       22       53 1        
      50       23       54 1        
      51       24       25 1        
      52       25       55 1        
      53       25       56 1        
      54       25       57 1        
      55       26       31 1        
      56       26       27 1        
      57       27       28 1        
      58       27       58 1        
      59       27       59 1        
      60       28       29 1        
      61       28       60 1        
      62       28       61 1        
      63       29       30 1        
      64       30       31 1        
      65       30       62 1        
      66       30       63 1        
      67       31       64 1        
      68       31       65 1        

