#        1GCZ_R01_S0001_C0000_L00008_S0001_C0015_G0010_E0001.mol2
#        Tue Jun  6 14:09:58 2017
#        Descriptor:     23     3     9    10     9    14
#        Energy - RMSD - RMSD MassCentre:     -72.8563    999.9999    999.9999
#        Receptor:       1  Surface Point:     1  Conformer:     0
#        Ligand:         8  Surface Point:     1  Conformer:    15
#        BUDE Formal Charge: 0
#        ATOM Count: 65
#        Heavy ATOM Count: 31
@<TRIPOS>MOLECULE
ZINC61400536_1GCZ_R01_S0001_C0000_L00008_S0001_C0015_G0010_E0001
 65 68 0 0 0
SMALL
USER_CHARGES
@<TRIPOS>ATOM
       1 C1         7.3904    1.7374    5.7353 C.3       1 <0>        -0.1457 
       2 C2         6.5409    0.9156    6.7504 C.3       1 <0>         0.1768 
       3 C3         6.1311   -0.4776    6.1612 C.3       1 <0>        -0.1798 
       4 C4         7.4195    0.6062    8.0110 C.3       1 <0>        -0.1802 
       5 N1         5.4041    1.7404    7.1759 N.pl3     1 <0>        -0.2386 
       6 C5         4.1643    1.7229    6.7555 C.2       1 <0>        -0.0401 
       7 C6         3.4591    2.6050    7.4765 C.2       1 <0>        -0.1820 
       8 C7         4.3926    3.1829    8.4258 C.2       1 <0>         0.0520 
       9 N2         5.5017    2.6229    8.1924 N.2       1 <0>        -0.2594 
      10 C8         4.1663    4.2255    9.4866 C.3       1 <0>        -0.0741 
      11 C9         5.3420    5.1777    9.8096 C.3       1 <0>        -0.1663 
      12 C10        4.9498    4.0689   10.8114 C.3       1 <0>        -0.1657 
      13 C11        3.5073    0.9527    5.6766 C.2       1 <0>         0.5920 
      14 O1         4.1759    0.1870    5.0024 O.2       1 <0>        -0.5202 
      15 N3         2.1925    1.1456    5.3980 N.am      1 <0>        -0.7096 
      16 C12        1.5573    0.3841    4.3292 C.3       1 <0>         0.1269 
      17 C13        0.0625    0.7277    4.0556 C.3       1 <0>         0.1209 
      18 C14       -0.6545    0.3469    5.3726 C.ar      1 <0>        -0.1261 
      19 C15       -0.8182   -0.9967    5.7263 C.ar      1 <0>        -0.0471 
      20 C16       -1.4575   -1.3328    6.9218 C.ar      1 <0>        -0.1526 
      21 C17       -1.9259   -0.3482    7.7969 C.ar      1 <0>         0.1329 
      22 C18       -1.7706    0.9909    7.4375 C.ar      1 <0>        -0.2055 
      23 C19       -1.1413    1.3355    6.2364 C.ar      1 <0>        -0.0791 
      24 O2        -2.5550   -0.7492    8.9917 O.3       1 <0>        -0.3169 
      25 C20       -3.3323   -1.9575    9.0606 C.3       1 <0>         0.0263 
      26 N4        -0.6038   -0.0849    3.0000 N.3       1 <0>        -0.5235 
      27 C21       -2.0014    0.3223    2.7138 C.3       1 <0>         0.0085 
      28 C22       -2.0739    1.2237    1.4552 C.3       1 <0>         0.0643 
      29 O3        -0.8478    1.9613    1.3229 O.3       1 <0>        -0.3844 
      30 C23        0.2578    1.1144    0.9827 C.3       1 <0>         0.0641 
      31 C24        0.1598   -0.2361    1.7382 C.3       1 <0>         0.0200 
      32 H1         7.7043    2.6941    6.1855 H         1 <0>         0.0684 
      33 H2         6.7975    1.9438    4.8287 H         1 <0>         0.0673 
      34 H3         8.2875    1.1692    5.4483 H         1 <0>         0.0762 
      35 H4         5.4978   -0.3450    5.2678 H         1 <0>         0.0772 
      36 H5         7.0314   -1.0500    5.8822 H         1 <0>         0.1076 
      37 H6         5.5467   -1.0799    6.8699 H         1 <0>         0.0533 
      38 H7         6.8475    0.0158    8.7469 H         1 <0>         0.0541 
      39 H8         7.7468    1.5462    8.4868 H         1 <0>         0.1047 
      40 H9         8.3132    0.0276    7.7231 H         1 <0>         0.0783 
      41 H10        2.4041    2.8643    7.3824 H         1 <0>         0.1546 
      42 H11        3.1615    4.6693    9.5922 H         1 <0>         0.1185 
      43 H12        6.2793    5.0249    9.2496 H         1 <0>         0.0960 
      44 H13        5.0754    6.2160   10.0700 H         1 <0>         0.1015 
      45 H14        5.6338    3.2077   10.8899 H         1 <0>         0.1002 
      46 H15        4.4269    4.3820   11.7308 H         1 <0>         0.0943 
      47 H16        1.6669    1.8113    5.9247 H         1 <0>         0.4026 
      48 H17        1.6083   -0.6906    4.5829 H         1 <0>         0.0820 
      49 H18        2.1004    0.5540    3.3827 H         1 <0>         0.0826 
      50 H19       -0.0219    1.8066    3.8311 H         1 <0>         0.0584 
      51 H20       -0.4521   -1.7862    5.0764 H         1 <0>         0.1381 
      52 H21       -1.5861   -2.3764    7.1945 H         1 <0>         0.1314 
      53 H22       -2.1285    1.7938    8.0720 H         1 <0>         0.1295 
      54 H23       -1.0320    2.3837    5.9728 H         1 <0>         0.1215 
      55 H24       -2.6865   -2.8179    8.8231 H         1 <0>         0.0567 
      56 H25       -3.7354   -2.0907   10.0786 H         1 <0>         0.0562 
      57 H26       -4.1537   -1.9228    8.3254 H         1 <0>         0.1014 
      58 H27       -2.4304    0.8953    3.5558 H         1 <0>         0.0471 
      59 H28       -2.6708   -0.5356    2.5301 H         1 <0>         0.0943 
      60 H29       -2.2519    0.6039    0.5577 H         1 <0>         0.0999 
      61 H30       -2.9008    1.9505    1.5389 H         1 <0>         0.0621 
      62 H31        0.2932    0.9373   -0.1077 H         1 <0>         0.0991 
      63 H32        1.1859    1.6384    1.2712 H         1 <0>         0.0615 
      64 H33        1.1835   -0.5890    1.9545 H         1 <0>         0.0908 
      65 H34       -0.3316   -0.9678    1.0718 H         1 <0>         0.0448 
@<TRIPOS>BOND
       1        1        2 1        
       2        1       32 1        
       3        1       33 1        
       4        1       34 1        
       5        2        3 1        
       6        2        4 1        
       7        2        5 1        
       8        3       35 1        
       9        3       36 1        
      10        3       37 1        
      11        4       38 1        
      12        4       39 1        
      13        4       40 1        
      14        5        9 1        
      15        5        6 1        
      16        6        7 2        
      17        6       13 1        
      18        7        8 1        
      19        7       41 1        
      20        8        9 2        
      21        8       10 1        
      22       10       12 1        
      23       10       11 1        
      24       10       42 1        
      25       11       12 1        
      26       11       43 1        
      27       11       44 1        
      28       12       45 1        
      29       12       46 1        
      30       13       14 2        
      31       13       15 am       
      32       15       16 1        
      33       15       47 1        
      34       16       17 1        
      35       16       48 1        
      36       16       49 1        
      37       17       18 1        
      38       17       26 1        
      39       17       50 1        
      40       18       23 ar       
      41       18       19 ar       
      42       19       20 ar       
      43       19       51 1        
      44       20       21 ar       
      45       20       52 1        
      46       21       22 ar       
      47       21       24 1        
      48       22       23 ar       
      49       22       53 1        
      50       23       54 1        
      51       24       25 1        
      52       25       55 1        
      53       25       56 1        
      54       25       57 1        
      55       26       31 1        
      56       26       27 1        
      57       27       28 1        
      58       27       58 1        
      59       27       59 1        
      60       28       29 1        
      61       28       60 1        
      62       28       61 1        
      63       29       30 1        
      64       30       31 1        
      65       30       62 1        
      66       30       63 1        
      67       31       64 1        
      68       31       65 1        

