#        1GCZ_R01_S0001_C0000_L00003_S0001_C0008_G0010_E0001.mol2
#        Tue Jun  6 09:54:42 2017
#        Descriptor:     21    15    21     8     7    14
#        Energy - RMSD - RMSD MassCentre:     -59.9024    999.9999    999.9999
#        Receptor:       1  Surface Point:     1  Conformer:     0
#        Ligand:         3  Surface Point:     1  Conformer:     8
#        BUDE Formal Charge: 0
#        ATOM Count: 58
#        Heavy ATOM Count: 30
@<TRIPOS>MOLECULE
ZINC61580633_1GCZ_R01_S0001_C0000_L00003_S0001_C0008_G0010_E0001
 58 59 0 0 0
SMALL
USER_CHARGES
@<TRIPOS>ATOM
       1 C1         0.6274   -0.9979    0.5688 C.3       1 <0>        -0.1532 
       2 C2        -0.7115   -0.6824    1.2290 C.3       1 <0>        -0.1224 
       3 C3        -0.5581   -0.7505    2.7479 C.3       1 <0>        -0.1198 
       4 C4        -1.8989   -0.4345    3.4091 C.3       1 <0>         0.0610 
       5 O1        -1.7553   -0.4983    4.8303 O.3       1 <0>        -0.3878 
       6 C5        -2.9828   -0.2105    5.5053 C.3       1 <0>         0.0487 
       7 C6        -2.7645   -0.2943    7.0152 C.3       1 <0>         0.1244 
       8 N1        -1.9689    0.8592    7.4593 N.am      1 <0>        -0.7216 
       9 C7        -1.6547    0.9946    8.7445 C.2       1 <0>         0.5161 
      10 O2        -0.9890    1.9592    9.1174 O.2       1 <0>        -0.5151 
      11 C8        -2.1156   -0.0367    9.7466 C.3       1 <0>         0.0490 
      12 O3        -1.4077   -1.2602    9.5301 O.3       1 <0>        -0.3194 
      13 C9        -1.6884   -2.3055   10.3370 C.2       1 <0>         0.5417 
      14 O4        -2.5240   -2.1896   11.2183 O.2       1 <0>        -0.5337 
      15 C10       -0.9820   -3.5926   10.1523 C.2       1 <0>        -0.2559 
      16 C11       -1.2024   -4.7948   10.9869 C.2       1 <0>        -0.0791 
      17 C12       -0.4281   -5.8183   10.6192 C.2       1 <0>        -0.2585 
      18 S1         0.6167   -5.4249    9.2459 S.3       1 <0>         0.3028 
      19 C13       -0.0544   -3.7877    9.2052 C.2       1 <0>         0.0893 
      20 N2         0.3126   -2.8003    8.3291 N.am      1 <0>        -0.6099 
      21 C14        1.2386   -3.0404    7.4051 C.2       1 <0>         0.5551 
      22 O5         1.7659   -4.1495    7.3370 O.2       1 <0>        -0.4939 
      23 C15        1.6338   -1.9727    6.4595 C.ar      1 <0>        -0.1466 
      24 C16        2.6146   -2.2678    5.5050 C.ar      1 <0>        -0.0772 
      25 C17        3.0827   -1.2788    4.6318 C.ar      1 <0>        -0.1241 
      26 C18        2.5854    0.0276    4.7038 C.ar      1 <0>        -0.0446 
      27 C19        1.5669    0.3125    5.6211 C.ar      1 <0>        -0.1261 
      28 C20        1.0809   -0.6867    6.4728 C.ar      1 <0>        -0.0460 
      29 C21        3.1475    1.0947    3.7950 C.3       1 <0>        -0.0928 
      30 C22        4.3237    1.7804    4.4841 C.3       1 <0>        -0.1485 
      31 H1         0.9403   -2.0022    0.8465 H         1 <0>         0.0567 
      32 H2         1.3737   -0.2798    0.9022 H         1 <0>         0.0554 
      33 H3         0.5215   -0.9362   -0.5122 H         1 <0>         0.0557 
      34 H4        -1.0316    0.3171    0.9421 H         1 <0>         0.0632 
      35 H5        -1.4553   -1.4083    0.9074 H         1 <0>         0.0635 
      36 H6        -0.2388   -1.7497    3.0363 H         1 <0>         0.0711 
      37 H7         0.1849   -0.0242    3.0708 H         1 <0>         0.0704 
      38 H8        -2.2190    0.5650    3.1220 H         1 <0>         0.0498 
      39 H9        -2.6426   -1.1606    3.0874 H         1 <0>         0.0505 
      40 H10       -3.7392   -0.9339    5.2081 H         1 <0>         0.0584 
      41 H11       -3.3154    0.7917    5.2427 H         1 <0>         0.0702 
      42 H12       -2.2345   -1.2136    7.2551 H         1 <0>         0.0872 
      43 H13       -3.7271   -0.2869    7.5223 H         1 <0>         0.0805 
      44 H14       -1.6606    1.5490    6.7890 H         1 <0>         0.4058 
      45 H15       -1.9182    0.3224   10.7544 H         1 <0>         0.1008 
      46 H16       -3.1829   -0.2095    9.6251 H         1 <0>         0.0999 
      47 H17       -1.9231   -4.8222   11.7907 H         1 <0>         0.1557 
      48 H18       -0.4582   -6.7804   11.1089 H         1 <0>         0.1929 
      49 H19       -0.1204   -1.8896    8.3850 H         1 <0>         0.4317 
      50 H20        3.0193   -3.2672    5.4427 H         1 <0>         0.1287 
      51 H21        3.8351   -1.5197    3.8955 H         1 <0>         0.1326 
      52 H22        1.1593    1.3119    5.6595 H         1 <0>         0.1342 
      53 H23        0.2552   -0.4238    7.1174 H         1 <0>         0.1410 
      54 H24        2.3749    1.8293    3.5782 H         1 <0>         0.0777 
      55 H25        3.4857    0.6385    2.8670 H         1 <0>         0.0771 
      56 H26        5.1008    1.0471    4.6891 H         1 <0>         0.0623 
      57 H27        3.9872    2.2240    5.4189 H         1 <0>         0.0572 
      58 H28        4.7202    2.5581    3.8348 H         1 <0>         0.0578 
@<TRIPOS>BOND
       1        1        2 1        
       2        1       31 1        
       3        1       32 1        
       4        1       33 1        
       5        2        3 1        
       6        2       34 1        
       7        2       35 1        
       8        3        4 1        
       9        3       36 1        
      10        3       37 1        
      11        4        5 1        
      12        4       38 1        
      13        4       39 1        
      14        5        6 1        
      15        6        7 1        
      16        6       40 1        
      17        6       41 1        
      18        7        8 1        
      19        7       42 1        
      20        7       43 1        
      21        8        9 am       
      22        8       44 1        
      23        9       10 2        
      24        9       11 1        
      25       11       12 1        
      26       11       45 1        
      27       11       46 1        
      28       12       13 1        
      29       13       14 2        
      30       13       15 1        
      31       15       19 2        
      32       15       16 1        
      33       16       17 2        
      34       16       47 1        
      35       17       18 1        
      36       17       48 1        
      37       18       19 1        
      38       19       20 1        
      39       20       21 am       
      40       20       49 1        
      41       21       22 2        
      42       21       23 1        
      43       23       28 ar       
      44       23       24 ar       
      45       24       25 ar       
      46       24       50 1        
      47       25       26 ar       
      48       25       51 1        
      49       26       27 ar       
      50       26       29 1        
      51       27       28 ar       
      52       27       52 1        
      53       28       53 1        
      54       29       30 1        
      55       29       54 1        
      56       29       55 1        
      57       30       56 1        
      58       30       57 1        
      59       30       58 1        

