#        1GCZ_R01_S0001_C0000_L00008_S0001_C0016_G0010_E0001.mol2
#        Tue Jun  6 09:57:20 2017
#        Descriptor:      5     4    22    12     6    14
#        Energy - RMSD - RMSD MassCentre:     -58.2435    999.9999    999.9999
#        Receptor:       1  Surface Point:     1  Conformer:     0
#        Ligand:         8  Surface Point:     1  Conformer:    16
#        BUDE Formal Charge: 0
#        ATOM Count: 65
#        Heavy ATOM Count: 31
@<TRIPOS>MOLECULE
ZINC61400536_1GCZ_R01_S0001_C0000_L00008_S0001_C0016_G0010_E0001
 65 68 0 0 0
SMALL
USER_CHARGES
@<TRIPOS>ATOM
       1 C1         7.5645   -6.2458    6.8505 C.3       1 <0>        -0.1457 
       2 C2         6.5031   -6.0275    5.7311 C.3       1 <0>         0.1768 
       3 C3         7.0288   -5.0514    4.6234 C.3       1 <0>        -0.1798 
       4 C4         6.2414   -7.3940    5.0092 C.3       1 <0>        -0.1802 
       5 N1         5.2500   -5.5950    6.3606 N.pl3     1 <0>        -0.2386 
       6 C5         4.7603   -4.3875    6.4879 C.2       1 <0>        -0.0401 
       7 C6         3.5568   -4.4767    7.0702 C.2       1 <0>        -0.1820 
       8 C7         3.3221   -5.8922    7.2886 C.2       1 <0>         0.0520 
       9 N2         4.3498   -6.4778    6.8422 N.2       1 <0>        -0.2594 
      10 C8         2.1398   -6.5888    7.9055 C.3       1 <0>        -0.0741 
      11 C9         1.1899   -7.3543    6.9542 C.3       1 <0>        -0.1663 
      12 C10        0.7372   -6.0194    7.5866 C.3       1 <0>        -0.1657 
      13 C11        5.3164   -3.0631    6.1332 C.2       1 <0>         0.5920 
      14 O1         6.4321   -2.9998    5.6443 O.2       1 <0>        -0.5202 
      15 N3         4.6213   -1.9301    6.4098 N.am      1 <0>        -0.7096 
      16 C12        5.1819   -0.6305    6.0597 C.3       1 <0>         0.1269 
      17 C13        4.3280    0.6043    6.4762 C.3       1 <0>         0.1209 
      18 C14        3.0188    0.4417    5.6679 C.ar      1 <0>        -0.1261 
      19 C15        3.0110    0.6489    4.2844 C.ar      1 <0>        -0.0471 
      20 C16        1.8275    0.4904    3.5596 C.ar      1 <0>        -0.1526 
      21 C17        0.6385    0.1041    4.1856 C.ar      1 <0>         0.1329 
      22 C18        0.6462   -0.0921    5.5669 C.ar      1 <0>        -0.2055 
      23 C19        1.8251    0.0756    6.3014 C.ar      1 <0>        -0.0791 
      24 O2        -0.5208   -0.0474    3.4001 O.3       1 <0>        -0.3169 
      25 C20       -0.7535    0.7720    2.2410 C.3       1 <0>         0.0263 
      26 N4         4.8724    1.9310    6.0736 N.3       1 <0>        -0.5235 
      27 C21        4.0734    3.0849    6.5542 C.3       1 <0>         0.0085 
      28 C22        4.6966    3.7025    7.8316 C.3       1 <0>         0.0643 
      29 O3         5.3867    2.6810    8.5700 O.3       1 <0>        -0.3844 
      30 C23        6.5642    2.2257    7.8905 C.3       1 <0>         0.0641 
      31 C24        6.3112    2.1414    6.3631 C.3       1 <0>         0.0200 
      32 H1         7.1916   -6.9685    7.5956 H         1 <0>         0.0684 
      33 H2         7.7819   -5.2893    7.3545 H         1 <0>         0.0673 
      34 H3         8.4966   -6.6347    6.4147 H         1 <0>         0.0762 
      35 H4         7.2301   -4.0558    5.0535 H         1 <0>         0.0772 
      36 H5         7.9584   -5.4467    4.1809 H         1 <0>         0.1076 
      37 H6         6.3008   -4.8993    3.8150 H         1 <0>         0.0533 
      38 H7         5.4988   -7.2705    4.2026 H         1 <0>         0.0541 
      39 H8         5.8631   -8.1387    5.7297 H         1 <0>         0.1047 
      40 H9         7.1748   -7.7775    4.5639 H         1 <0>         0.0783 
      41 H10        2.8785   -3.6686    7.3461 H         1 <0>         0.1546 
      42 H11        2.2447   -7.0252    8.9138 H         1 <0>         0.1185 
      43 H12        1.4319   -7.3314    5.8788 H         1 <0>         0.0960 
      44 H13        0.7425   -8.2820    7.3492 H         1 <0>         0.1015 
      45 H14        0.6922   -5.1443    6.9175 H         1 <0>         0.1002 
      46 H15       -0.0099   -6.0729    8.3964 H         1 <0>         0.0943 
      47 H16        3.7298   -1.9920    6.8552 H         1 <0>         0.4026 
      48 H17        5.3136   -0.5865    4.9630 H         1 <0>         0.0820 
      49 H18        6.1678   -0.5122    6.5431 H         1 <0>         0.0826 
      50 H19        4.1526    0.5674    7.5668 H         1 <0>         0.0584 
      51 H20        3.9210    0.9346    3.7648 H         1 <0>         0.1381 
      52 H21        1.8220    0.6536    2.4857 H         1 <0>         0.1314 
      53 H22       -0.2510   -0.3777    6.1043 H         1 <0>         0.1295 
      54 H23        1.8104   -0.0794    7.3766 H         1 <0>         0.1215 
      55 H24        0.0579    0.6099    1.5138 H         1 <0>         0.0567 
      56 H25       -1.7105    0.4952    1.7678 H         1 <0>         0.0562 
      57 H26       -0.7614    1.8377    2.5252 H         1 <0>         0.1014 
      58 H27        3.0414    2.7790    6.8046 H         1 <0>         0.0471 
      59 H28        4.0001    3.8973    5.8108 H         1 <0>         0.0943 
      60 H29        5.3907    4.5172    7.5562 H         1 <0>         0.0999 
      61 H30        3.9144    4.1256    8.4860 H         1 <0>         0.0621 
      62 H31        7.4183    2.8962    8.0970 H         1 <0>         0.0991 
      63 H32        6.8158    1.2253    8.2843 H         1 <0>         0.0615 
      64 H33        6.9060    1.3041    5.9575 H         1 <0>         0.0908 
      65 H34        6.6667    3.0813    5.9034 H         1 <0>         0.0448 
@<TRIPOS>BOND
       1        1        2 1        
       2        1       32 1        
       3        1       33 1        
       4        1       34 1        
       5        2        3 1        
       6        2        4 1        
       7        2        5 1        
       8        3       35 1        
       9        3       36 1        
      10        3       37 1        
      11        4       38 1        
      12        4       39 1        
      13        4       40 1        
      14        5        9 1        
      15        5        6 1        
      16        6        7 2        
      17        6       13 1        
      18        7        8 1        
      19        7       41 1        
      20        8        9 2        
      21        8       10 1        
      22       10       12 1        
      23       10       11 1        
      24       10       42 1        
      25       11       12 1        
      26       11       43 1        
      27       11       44 1        
      28       12       45 1        
      29       12       46 1        
      30       13       14 2        
      31       13       15 am       
      32       15       16 1        
      33       15       47 1        
      34       16       17 1        
      35       16       48 1        
      36       16       49 1        
      37       17       18 1        
      38       17       26 1        
      39       17       50 1        
      40       18       23 ar       
      41       18       19 ar       
      42       19       20 ar       
      43       19       51 1        
      44       20       21 ar       
      45       20       52 1        
      46       21       22 ar       
      47       21       24 1        
      48       22       23 ar       
      49       22       53 1        
      50       23       54 1        
      51       24       25 1        
      52       25       55 1        
      53       25       56 1        
      54       25       57 1        
      55       26       31 1        
      56       26       27 1        
      57       27       28 1        
      58       27       58 1        
      59       27       59 1        
      60       28       29 1        
      61       28       60 1        
      62       28       61 1        
      63       29       30 1        
      64       30       31 1        
      65       30       62 1        
      66       30       63 1        
      67       31       64 1        
      68       31       65 1        

