#        1GCZ_R01_S0001_C0000_L00008_S0001_C0016_G0010_E0001.mol2
#        Tue Jun  6 14:10:00 2017
#        Descriptor:     23     2     9    10     9    13
#        Energy - RMSD - RMSD MassCentre:     -77.8962    999.9999    999.9999
#        Receptor:       1  Surface Point:     1  Conformer:     0
#        Ligand:         8  Surface Point:     1  Conformer:    16
#        BUDE Formal Charge: 0
#        ATOM Count: 65
#        Heavy ATOM Count: 31
@<TRIPOS>MOLECULE
ZINC61400536_1GCZ_R01_S0001_C0000_L00008_S0001_C0016_G0010_E0001
 65 68 0 0 0
SMALL
USER_CHARGES
@<TRIPOS>ATOM
       1 C1         7.5437    1.7358    4.5735 C.3       1 <0>        -0.1457 
       2 C2         6.6942    1.1028    5.7159 C.3       1 <0>         0.1768 
       3 C3         6.2844   -0.3715    5.3776 C.3       1 <0>        -0.1798 
       4 C4         7.5728    1.0170    7.0111 C.3       1 <0>        -0.1802 
       5 N1         5.5574    1.9890    5.9917 N.pl3     1 <0>        -0.2386 
       6 C5         4.3176    1.8987    5.5807 C.2       1 <0>        -0.0401 
       7 C6         3.6124    2.8926    6.1376 C.2       1 <0>        -0.1820 
       8 C7         4.5459    3.6266    6.9721 C.2       1 <0>         0.0520 
       9 N2         5.6550    3.0346    6.8395 N.2       1 <0>        -0.2594 
      10 C8         4.3196    4.8375    7.8358 C.3       1 <0>        -0.0741 
      11 C9         4.2953    4.6235    9.3677 C.3       1 <0>        -0.1663 
      12 C10        2.9817    4.9156    8.6087 C.3       1 <0>        -0.1657 
      13 C11        3.6606    0.9528    4.6519 C.2       1 <0>         0.5920 
      14 O1         4.3292    0.0817    4.1209 O.2       1 <0>        -0.5202 
      15 N3         2.3458    1.0944    4.3440 N.am      1 <0>        -0.7096 
      16 C12        1.7106    0.1589    3.4237 C.3       1 <0>         0.1269 
      17 C13        0.2158    0.4498    3.0946 C.3       1 <0>         0.1209 
      18 C14       -0.5012    0.3034    4.4578 C.ar      1 <0>        -0.1261 
      19 C15       -0.6649   -0.9583    5.0394 C.ar      1 <0>        -0.0471 
      20 C16       -1.3042   -1.0818    6.2751 C.ar      1 <0>        -0.1526 
      21 C17       -1.7726    0.0399    6.9660 C.ar      1 <0>         0.1329 
      22 C18       -1.6173    1.2963    6.3794 C.ar      1 <0>        -0.2055 
      23 C19       -0.9880    1.4270    5.1367 C.ar      1 <0>        -0.0791 
      24 O2        -2.4017   -0.1475    8.2122 O.3       1 <0>        -0.3169 
      25 C20       -3.1790   -1.3256    8.4899 C.3       1 <0>         0.0263 
      26 N4        -0.4505   -0.5338    2.1962 N.3       1 <0>        -0.5235 
      27 C21       -1.8481   -0.1825    1.8436 C.3       1 <0>         0.0085 
      28 C22       -1.9206    0.4866    0.4476 C.3       1 <0>         0.0643 
      29 O3        -0.6945    1.1901    0.1893 O.3       1 <0>        -0.3844 
      30 C23        0.4111    0.2970    0.0013 C.3       1 <0>         0.0641 
      31 C24        0.3131   -0.9018    0.9798 C.3       1 <0>         0.0200 
      32 H1         7.8576    2.7562    4.8507 H         1 <0>         0.0684 
      33 H2         6.9508    1.7816    3.6448 H         1 <0>         0.0673 
      34 H3         8.4408    1.1264    4.3895 H         1 <0>         0.0762 
      35 H4         5.6511   -0.3962    4.4748 H         1 <0>         0.0772 
      36 H5         7.1848   -0.9838    5.2022 H         1 <0>         0.1076 
      37 H6         5.7000   -0.8417    6.1801 H         1 <0>         0.0533 
      38 H7         7.0008    0.5633    7.8383 H         1 <0>         0.0541 
      39 H8         7.9001    2.0253    7.3164 H         1 <0>         0.1047 
      40 H9         8.4665    0.3971    6.8280 H         1 <0>         0.0783 
      41 H10        2.5574    3.1316    5.9999 H         1 <0>         0.1546 
      42 H11        4.7212    5.8108    7.5050 H         1 <0>         0.1185 
      43 H12        4.4334    3.5921    9.7321 H         1 <0>         0.0960 
      44 H13        4.7184    5.4351    9.9835 H         1 <0>         0.1015 
      45 H14        2.2824    4.0721    8.4860 H         1 <0>         0.1002 
      46 H15        2.5425    5.9202    8.7293 H         1 <0>         0.0943 
      47 H16        1.8202    1.8415    4.7472 H         1 <0>         0.4026 
      48 H17        1.7616   -0.8555    3.8602 H         1 <0>         0.0820 
      49 H18        2.2537    0.1619    2.4621 H         1 <0>         0.0826 
      50 H19        0.1314    1.4733    2.6862 H         1 <0>         0.0584 
      51 H20       -0.2988   -1.8487    4.5365 H         1 <0>         0.1381 
      52 H21       -1.4328   -2.0621    6.7249 H         1 <0>         0.1314 
      53 H22       -1.9752    2.1972    6.8649 H         1 <0>         0.1295 
      54 H23       -0.8787    2.4135    4.6951 H         1 <0>         0.1215 
      55 H24       -2.5332   -2.2141    8.4054 H         1 <0>         0.0567 
      56 H25       -3.5821   -1.2799    9.5155 H         1 <0>         0.0562 
      57 H26       -4.0004   -1.4190    7.7598 H         1 <0>         0.1014 
      58 H27       -2.2771    0.5280    2.5733 H         1 <0>         0.0471 
      59 H28       -2.5175   -1.0592    1.8117 H         1 <0>         0.0943 
      60 H29       -2.0986   -0.2796   -0.3286 H         1 <0>         0.0999 
      61 H30       -2.7475    1.2170    0.4039 H         1 <0>         0.0621 
      62 H31        0.4465   -0.0668   -1.0418 H         1 <0>         0.0991 
      63 H32        1.3392    0.8632    0.1944 H         1 <0>         0.0615 
      64 H33        1.3368   -1.2118    1.2541 H         1 <0>         0.0908 
      65 H34       -0.1783   -1.7381    0.4506 H         1 <0>         0.0448 
@<TRIPOS>BOND
       1        1        2 1        
       2        1       32 1        
       3        1       33 1        
       4        1       34 1        
       5        2        3 1        
       6        2        4 1        
       7        2        5 1        
       8        3       35 1        
       9        3       36 1        
      10        3       37 1        
      11        4       38 1        
      12        4       39 1        
      13        4       40 1        
      14        5        9 1        
      15        5        6 1        
      16        6        7 2        
      17        6       13 1        
      18        7        8 1        
      19        7       41 1        
      20        8        9 2        
      21        8       10 1        
      22       10       12 1        
      23       10       11 1        
      24       10       42 1        
      25       11       12 1        
      26       11       43 1        
      27       11       44 1        
      28       12       45 1        
      29       12       46 1        
      30       13       14 2        
      31       13       15 am       
      32       15       16 1        
      33       15       47 1        
      34       16       17 1        
      35       16       48 1        
      36       16       49 1        
      37       17       18 1        
      38       17       26 1        
      39       17       50 1        
      40       18       23 ar       
      41       18       19 ar       
      42       19       20 ar       
      43       19       51 1        
      44       20       21 ar       
      45       20       52 1        
      46       21       22 ar       
      47       21       24 1        
      48       22       23 ar       
      49       22       53 1        
      50       23       54 1        
      51       24       25 1        
      52       25       55 1        
      53       25       56 1        
      54       25       57 1        
      55       26       31 1        
      56       26       27 1        
      57       27       28 1        
      58       27       58 1        
      59       27       59 1        
      60       28       29 1        
      61       28       60 1        
      62       28       61 1        
      63       29       30 1        
      64       30       31 1        
      65       30       62 1        
      66       30       63 1        
      67       31       64 1        
      68       31       65 1        

