#        1GCZ_R01_S0001_C0000_L00008_S0001_C0017_G0010_E0001.mol2
#        Tue Jun  6 09:57:21 2017
#        Descriptor:     23     3     9    10     9    13
#        Energy - RMSD - RMSD MassCentre:     -76.7096    999.9999    999.9999
#        Receptor:       1  Surface Point:     1  Conformer:     0
#        Ligand:         8  Surface Point:     1  Conformer:    17
#        BUDE Formal Charge: 0
#        ATOM Count: 65
#        Heavy ATOM Count: 31
@<TRIPOS>MOLECULE
ZINC61400536_1GCZ_R01_S0001_C0000_L00008_S0001_C0017_G0010_E0001
 65 68 0 0 0
SMALL
USER_CHARGES
@<TRIPOS>ATOM
       1 C1         7.4959    1.6545    4.8393 C.3       1 <0>        -0.1457 
       2 C2         6.6465    0.8327    5.8544 C.3       1 <0>         0.1768 
       3 C3         6.2366   -0.5605    5.2652 C.3       1 <0>        -0.1798 
       4 C4         7.5250    0.5233    7.1150 C.3       1 <0>        -0.1802 
       5 N1         5.5096    1.6575    6.2799 N.pl3     1 <0>        -0.2386 
       6 C5         4.2699    1.6400    5.8595 C.2       1 <0>        -0.0401 
       7 C6         3.5646    2.5221    6.5805 C.2       1 <0>        -0.1820 
       8 C7         4.4981    3.1000    7.5298 C.2       1 <0>         0.0520 
       9 N2         5.6073    2.5400    7.2964 N.2       1 <0>        -0.2594 
      10 C8         4.2718    4.1426    8.5906 C.3       1 <0>        -0.0741 
      11 C9         3.3430    5.3278    8.2359 C.3       1 <0>        -0.1663 
      12 C10        4.8685    5.5480    8.3405 C.3       1 <0>        -0.1657 
      13 C11        3.6128    0.8698    4.7806 C.2       1 <0>         0.5920 
      14 O1         4.2815    0.1041    4.1064 O.2       1 <0>        -0.5202 
      15 N3         2.2980    1.0627    4.5020 N.am      1 <0>        -0.7096 
      16 C12        1.6629    0.3012    3.4332 C.3       1 <0>         0.1269 
      17 C13        0.1681    0.6448    3.1596 C.3       1 <0>         0.1209 
      18 C14       -0.5489    0.2640    4.4766 C.ar      1 <0>        -0.1261 
      19 C15       -0.7126   -1.0796    4.8303 C.ar      1 <0>        -0.0471 
      20 C16       -1.3519   -1.4157    6.0258 C.ar      1 <0>        -0.1526 
      21 C17       -1.8203   -0.4311    6.9009 C.ar      1 <0>         0.1329 
      22 C18       -1.6650    0.9080    6.5415 C.ar      1 <0>        -0.2055 
      23 C19       -1.0357    1.2526    5.3404 C.ar      1 <0>        -0.0791 
      24 O2        -2.4495   -0.8321    8.0957 O.3       1 <0>        -0.3169 
      25 C20       -3.2268   -2.0404    8.1646 C.3       1 <0>         0.0263 
      26 N4        -0.4983   -0.1678    2.1040 N.3       1 <0>        -0.5235 
      27 C21       -1.8959    0.2394    1.8178 C.3       1 <0>         0.0085 
      28 C22       -1.9683    1.1407    0.5592 C.3       1 <0>         0.0643 
      29 O3        -0.7423    1.8784    0.4269 O.3       1 <0>        -0.3844 
      30 C23        0.3634    1.0315    0.0867 C.3       1 <0>         0.0641 
      31 C24        0.2654   -0.3190    0.8422 C.3       1 <0>         0.0200 
      32 H1         7.8098    2.6112    5.2895 H         1 <0>         0.0684 
      33 H2         6.9030    1.8609    3.9327 H         1 <0>         0.0673 
      34 H3         8.3930    1.0863    4.5523 H         1 <0>         0.0762 
      35 H4         5.6034   -0.4279    4.3718 H         1 <0>         0.0772 
      36 H5         7.1370   -1.1330    4.9862 H         1 <0>         0.1076 
      37 H6         5.6522   -1.1628    5.9739 H         1 <0>         0.0533 
      38 H7         6.9531   -0.0671    7.8509 H         1 <0>         0.0541 
      39 H8         7.8524    1.4633    7.5908 H         1 <0>         0.1047 
      40 H9         8.4188   -0.0553    6.8271 H         1 <0>         0.0783 
      41 H10        2.5096    2.7814    6.4864 H         1 <0>         0.1546 
      42 H11        4.2495    3.8303    9.6488 H         1 <0>         0.1185 
      43 H12        2.9130    5.3414    7.2207 H         1 <0>         0.0960 
      44 H13        2.7150    5.7209    9.0531 H         1 <0>         0.1015 
      45 H14        5.4133    5.6995    7.3940 H         1 <0>         0.1002 
      46 H15        5.2403    6.0881    9.2275 H         1 <0>         0.0943 
      47 H16        1.7725    1.7284    5.0287 H         1 <0>         0.4026 
      48 H17        1.7138   -0.7735    3.6869 H         1 <0>         0.0820 
      49 H18        2.2060    0.4711    2.4867 H         1 <0>         0.0826 
      50 H19        0.0836    1.7237    2.9351 H         1 <0>         0.0584 
      51 H20       -0.3465   -1.8691    4.1804 H         1 <0>         0.1381 
      52 H21       -1.4805   -2.4593    6.2985 H         1 <0>         0.1314 
      53 H22       -2.0229    1.7109    7.1760 H         1 <0>         0.1295 
      54 H23       -0.9264    2.3008    5.0768 H         1 <0>         0.1215 
      55 H24       -2.5810   -2.9008    7.9271 H         1 <0>         0.0567 
      56 H25       -3.6298   -2.1736    9.1826 H         1 <0>         0.0562 
      57 H26       -4.0482   -2.0057    7.4294 H         1 <0>         0.1014 
      58 H27       -2.3249    0.8124    2.6598 H         1 <0>         0.0471 
      59 H28       -2.5652   -0.6185    1.6341 H         1 <0>         0.0943 
      60 H29       -2.1463    0.5210   -0.3383 H         1 <0>         0.0999 
      61 H30       -2.7953    1.8676    0.6429 H         1 <0>         0.0621 
      62 H31        0.3988    0.8543   -1.0037 H         1 <0>         0.0991 
      63 H32        1.2915    1.5555    0.3752 H         1 <0>         0.0615 
      64 H33        1.2891   -0.6719    1.0585 H         1 <0>         0.0908 
      65 H34       -0.2261   -1.0507    0.1758 H         1 <0>         0.0448 
@<TRIPOS>BOND
       1        1        2 1        
       2        1       32 1        
       3        1       33 1        
       4        1       34 1        
       5        2        3 1        
       6        2        4 1        
       7        2        5 1        
       8        3       35 1        
       9        3       36 1        
      10        3       37 1        
      11        4       38 1        
      12        4       39 1        
      13        4       40 1        
      14        5        9 1        
      15        5        6 1        
      16        6        7 2        
      17        6       13 1        
      18        7        8 1        
      19        7       41 1        
      20        8        9 2        
      21        8       10 1        
      22       10       12 1        
      23       10       11 1        
      24       10       42 1        
      25       11       12 1        
      26       11       43 1        
      27       11       44 1        
      28       12       45 1        
      29       12       46 1        
      30       13       14 2        
      31       13       15 am       
      32       15       16 1        
      33       15       47 1        
      34       16       17 1        
      35       16       48 1        
      36       16       49 1        
      37       17       18 1        
      38       17       26 1        
      39       17       50 1        
      40       18       23 ar       
      41       18       19 ar       
      42       19       20 ar       
      43       19       51 1        
      44       20       21 ar       
      45       20       52 1        
      46       21       22 ar       
      47       21       24 1        
      48       22       23 ar       
      49       22       53 1        
      50       23       54 1        
      51       24       25 1        
      52       25       55 1        
      53       25       56 1        
      54       25       57 1        
      55       26       31 1        
      56       26       27 1        
      57       27       28 1        
      58       27       58 1        
      59       27       59 1        
      60       28       29 1        
      61       28       60 1        
      62       28       61 1        
      63       29       30 1        
      64       30       31 1        
      65       30       62 1        
      66       30       63 1        
      67       31       64 1        
      68       31       65 1        

