#        1GCZ_R01_S0001_C0000_L00008_S0001_C0018_G0010_E0001.mol2
#        Tue Jun  6 14:10:05 2017
#        Descriptor:      2    16     2     6     9    15
#        Energy - RMSD - RMSD MassCentre:     -71.4284    999.9999    999.9999
#        Receptor:       1  Surface Point:     1  Conformer:     0
#        Ligand:         8  Surface Point:     1  Conformer:    18
#        BUDE Formal Charge: 0
#        ATOM Count: 65
#        Heavy ATOM Count: 31
@<TRIPOS>MOLECULE
ZINC61400536_1GCZ_R01_S0001_C0000_L00008_S0001_C0018_G0010_E0001
 65 68 0 0 0
SMALL
USER_CHARGES
@<TRIPOS>ATOM
       1 C1        -3.4592    5.9073    9.3678 C.3       1 <0>        -0.1457 
       2 C2        -2.5842    4.7565    9.9487 C.3       1 <0>         0.1768 
       3 C3        -1.1194    4.8128    9.3943 C.3       1 <0>        -0.1798 
       4 C4        -2.4631    4.9471   11.4997 C.3       1 <0>        -0.1802 
       5 N1        -3.2685    3.4831    9.6959 N.pl3     1 <0>        -0.2386 
       6 C5        -3.0612    2.6051    8.7471 C.2       1 <0>        -0.0401 
       7 C6        -3.8761    1.5610    8.9495 C.2       1 <0>        -0.1820 
       8 C7        -4.6241    1.8653   10.1556 C.2       1 <0>         0.0520 
       9 N2        -4.2081    2.9975   10.5343 N.2       1 <0>        -0.2594 
      10 C8        -5.6805    1.0608   10.8629 C.3       1 <0>        -0.0741 
      11 C9        -5.5604   -0.4803   10.8013 C.3       1 <0>        -0.1663 
      12 C10       -6.6539    0.2415    9.9827 C.3       1 <0>        -0.1657 
      13 C11       -2.1536    2.6221    7.5788 C.2       1 <0>         0.5920 
      14 O1        -1.4513    3.6009    7.3872 O.2       1 <0>        -0.5202 
      15 N3        -2.1517    1.5908    6.6957 N.am      1 <0>        -0.7096 
      16 C12       -1.2562    1.6212    5.5455 C.3       1 <0>         0.1269 
      17 C13       -1.3794    0.4163    4.5655 C.3       1 <0>         0.1209 
      18 C14       -0.9744   -0.8053    5.4242 C.ar      1 <0>        -0.1261 
      19 C15        0.3586   -0.9914    5.8058 C.ar      1 <0>        -0.0471 
      20 C16        0.7152   -2.0911    6.5896 C.ar      1 <0>        -0.1526 
      21 C17       -0.2413   -3.0122    7.0270 C.ar      1 <0>         0.1329 
      22 C18       -1.5685   -2.8303    6.6369 C.ar      1 <0>        -0.2055 
      23 C19       -1.9317   -1.7374    5.8425 C.ar      1 <0>        -0.0791 
      24 O2         0.1781   -4.0966    7.8221 O.3       1 <0>        -0.3169 
      25 C20        1.4754   -4.6941    7.6511 C.3       1 <0>         0.0263 
      26 N4        -0.4297    0.4181    3.4179 N.3       1 <0>        -0.5235 
      27 C21       -0.6283   -0.7020    2.4656 C.3       1 <0>         0.0085 
      28 C22       -1.4444   -0.2461    1.2295 C.3       1 <0>         0.0643 
      29 O3        -2.3334    0.8175    1.6081 O.3       1 <0>        -0.3844 
      30 C23       -1.6274    2.0249    1.9234 C.3       1 <0>         0.0641 
      31 C24       -0.3175    1.7039    2.6884 C.3       1 <0>         0.0200 
      32 H1        -4.4719    5.8751    9.8036 H         1 <0>         0.0684 
      33 H2        -3.5356    5.8057    8.2724 H         1 <0>         0.0673 
      34 H3        -3.0036    6.8810    9.6009 H         1 <0>         0.0762 
      35 H4        -1.1179    4.6767    8.2997 H         1 <0>         0.0772 
      36 H5        -0.6604    5.7859    9.6364 H         1 <0>         0.1076 
      37 H6        -0.4814    4.0196    9.8071 H         1 <0>         0.0533 
      38 H7        -1.8400    4.1506   11.9409 H         1 <0>         0.0541 
      39 H8        -3.4624    4.9159   11.9661 H         1 <0>         0.1047 
      40 H9        -1.9967    5.9193   11.7315 H         1 <0>         0.0783 
      41 H10       -3.9847    0.6615    8.3427 H         1 <0>         0.1546 
      42 H11       -6.1207    1.4597   11.7930 H         1 <0>         0.1185 
      43 H12       -4.7128   -0.8947   10.2312 H         1 <0>         0.0960 
      44 H13       -5.8801   -1.0338   11.7004 H         1 <0>         0.1015 
      45 H14       -6.5044    0.2905    8.8914 H         1 <0>         0.1002 
      46 H15       -7.6923    0.1588   10.3454 H         1 <0>         0.0943 
      47 H16       -2.7667    0.8170    6.8364 H         1 <0>         0.4026 
      48 H17       -0.2131    1.6451    5.9106 H         1 <0>         0.0820 
      49 H18       -1.4484    2.5332    4.9530 H         1 <0>         0.0826 
      50 H19       -2.4236    0.3489    4.2098 H         1 <0>         0.0584 
      51 H20        1.1242   -0.2859    5.4960 H         1 <0>         0.1381 
      52 H21        1.7509   -2.2360    6.8836 H         1 <0>         0.1314 
      53 H22       -2.3476   -3.5225    6.9356 H         1 <0>         0.1295 
      54 H23       -2.9698   -1.6142    5.5470 H         1 <0>         0.1215 
      55 H24        2.2515   -3.9359    7.8417 H         1 <0>         0.0567 
      56 H25        1.6084   -5.5216    8.3679 H         1 <0>         0.0562 
      57 H26        1.5907   -5.0610    6.6174 H         1 <0>         0.1014 
      58 H27       -1.1812   -1.5342    2.9379 H         1 <0>         0.0471 
      59 H28        0.3208   -1.1170    2.0852 H         1 <0>         0.0943 
      60 H29       -0.7600    0.0876    0.4285 H         1 <0>         0.0999 
      61 H30       -2.0558   -1.0759    0.8338 H         1 <0>         0.0621 
      62 H31       -1.3999    2.5957    1.0046 H         1 <0>         0.0991 
      63 H32       -2.2868    2.6467    2.5540 H         1 <0>         0.0615 
      64 H33       -0.1184    2.5263    3.3979 H         1 <0>         0.0908 
      65 H34        0.5079    1.6638    1.9549 H         1 <0>         0.0448 
@<TRIPOS>BOND
       1        1        2 1        
       2        1       32 1        
       3        1       33 1        
       4        1       34 1        
       5        2        3 1        
       6        2        4 1        
       7        2        5 1        
       8        3       35 1        
       9        3       36 1        
      10        3       37 1        
      11        4       38 1        
      12        4       39 1        
      13        4       40 1        
      14        5        9 1        
      15        5        6 1        
      16        6        7 2        
      17        6       13 1        
      18        7        8 1        
      19        7       41 1        
      20        8        9 2        
      21        8       10 1        
      22       10       12 1        
      23       10       11 1        
      24       10       42 1        
      25       11       12 1        
      26       11       43 1        
      27       11       44 1        
      28       12       45 1        
      29       12       46 1        
      30       13       14 2        
      31       13       15 am       
      32       15       16 1        
      33       15       47 1        
      34       16       17 1        
      35       16       48 1        
      36       16       49 1        
      37       17       18 1        
      38       17       26 1        
      39       17       50 1        
      40       18       23 ar       
      41       18       19 ar       
      42       19       20 ar       
      43       19       51 1        
      44       20       21 ar       
      45       20       52 1        
      46       21       22 ar       
      47       21       24 1        
      48       22       23 ar       
      49       22       53 1        
      50       23       54 1        
      51       24       25 1        
      52       25       55 1        
      53       25       56 1        
      54       25       57 1        
      55       26       31 1        
      56       26       27 1        
      57       27       28 1        
      58       27       58 1        
      59       27       59 1        
      60       28       29 1        
      61       28       60 1        
      62       28       61 1        
      63       29       30 1        
      64       30       31 1        
      65       30       62 1        
      66       30       63 1        
      67       31       64 1        
      68       31       65 1        

