#        1GCZ_R01_S0001_C0000_L00008_S0001_C0019_G0010_E0001.mol2
#        Tue Jun  6 09:57:23 2017
#        Descriptor:     24    13    27    13     8    13
#        Energy - RMSD - RMSD MassCentre:     -71.6674    999.9999    999.9999
#        Receptor:       1  Surface Point:     1  Conformer:     0
#        Ligand:         8  Surface Point:     1  Conformer:    19
#        BUDE Formal Charge: 0
#        ATOM Count: 65
#        Heavy ATOM Count: 31
@<TRIPOS>MOLECULE
ZINC61400536_1GCZ_R01_S0001_C0000_L00008_S0001_C0019_G0010_E0001
 65 68 0 0 0
SMALL
USER_CHARGES
@<TRIPOS>ATOM
       1 C1        -0.0817    0.0136    6.0394 C.3       1 <0>        -0.1457 
       2 C2         0.5309    0.9685    4.9716 C.3       1 <0>         0.1768 
       3 C3         0.9021    0.1988    3.6580 C.3       1 <0>        -0.1798 
       4 C4        -0.5508    2.0249    4.5582 C.3       1 <0>        -0.1802 
       5 N1         1.6581    1.6826    5.5827 N.pl3     1 <0>        -0.2386 
       6 C5         2.9407    1.4345    5.4966 C.2       1 <0>        -0.0401 
       7 C6         3.6034    2.3894    6.1631 C.2       1 <0>        -0.1820 
       8 C7         2.5915    3.2943    6.6769 C.2       1 <0>         0.0520 
       9 N2         1.4857    2.8188    6.2904 N.2       1 <0>        -0.2594 
      10 C8         2.7453    4.5456    7.4980 C.3       1 <0>        -0.0741 
      11 C9         1.6216    4.8748    8.5090 C.3       1 <0>        -0.1663 
      12 C10        1.7609    5.7045    7.2131 C.3       1 <0>        -0.1657 
      13 C11        3.6831    0.3321    4.8467 C.2       1 <0>         0.5920 
      14 O1         3.0595   -0.5515    4.2824 O.2       1 <0>        -0.5202 
      15 N3         5.0366    0.2700    4.9350 N.am      1 <0>        -0.7096 
      16 C12        5.7567   -0.8240    4.2945 C.3       1 <0>         0.1269 
      17 C13        7.2998   -0.8301    4.5095 C.3       1 <0>         0.1209 
      18 C14        7.7994   -1.9707    3.5911 C.ar      1 <0>        -0.1261 
      19 C15        7.5450   -3.3066    3.9194 C.ar      1 <0>        -0.0471 
      20 C16        7.9902   -4.3306    3.0805 C.ar      1 <0>        -0.1526 
      21 C17        8.6745   -4.0514    1.8936 C.ar      1 <0>         0.1329 
      22 C18        8.9360   -2.7189    1.5731 C.ar      1 <0>        -0.2055 
      23 C19        8.5031   -1.6881    2.4141 C.ar      1 <0>        -0.0791 
      24 O2         9.0913   -5.1264    1.0844 O.3       1 <0>        -0.3169 
      25 C20        8.3279   -6.3428    1.0022 C.3       1 <0>         0.0263 
      26 N4         7.7594   -1.2011    5.8769 N.3       1 <0>        -0.5235 
      27 C21        9.2455   -1.1353    5.9971 C.3       1 <0>         0.0085 
      28 C22        9.7449    0.3295    6.0738 C.3       1 <0>         0.0643 
      29 O3         9.1083    0.9957    7.1765 O.3       1 <0>        -0.3844 
      30 C23        7.6802    1.0053    7.0497 C.3       1 <0>         0.0641 
      31 C24        7.1311   -0.4433    6.9855 C.3       1 <0>         0.0200 
      32 H1        -0.3755    0.5823    6.9376 H         1 <0>         0.0684 
      33 H2         0.6565   -0.7542    6.3252 H         1 <0>         0.0673 
      34 H3        -0.9713   -0.4874    5.6301 H         1 <0>         0.0762 
      35 H4         1.6716   -0.5640    3.8647 H         1 <0>         0.0772 
      36 H5         0.0077   -0.2957    3.2436 H         1 <0>         0.1076 
      37 H6         1.3188    0.8592    2.8854 H         1 <0>         0.0533 
      38 H7        -0.1495    2.7124    3.7942 H         1 <0>         0.0541 
      39 H8        -0.8631    2.6138    5.4373 H         1 <0>         0.1047 
      40 H9        -1.4379    1.5215    4.1385 H         1 <0>         0.0783 
      41 H10        4.6790    2.4846    6.3150 H         1 <0>         0.1546 
      42 H11        3.7575    4.8617    7.8033 H         1 <0>         0.1185 
      43 H12        0.7695    4.1769    8.5564 H         1 <0>         0.0960 
      44 H13        1.9351    5.3504    9.4537 H         1 <0>         0.1015 
      45 H14        1.0007    5.5355    6.4326 H         1 <0>         0.1002 
      46 H15        2.1648    6.7264    7.3097 H         1 <0>         0.0943 
      47 H16        5.5327    0.9729    5.4417 H         1 <0>         0.4026 
      48 H17        5.5751   -0.7763    3.2051 H         1 <0>         0.0820 
      49 H18        5.3789   -1.7883    4.6779 H         1 <0>         0.0826 
      50 H19        7.7070    0.1536    4.2128 H         1 <0>         0.0584 
      51 H20        7.0023   -3.5574    4.8263 H         1 <0>         0.1381 
      52 H21        7.7940   -5.3676    3.3373 H         1 <0>         0.1314 
      53 H22        9.4756   -2.4472    0.6728 H         1 <0>         0.1295 
      54 H23        8.7186   -0.6569    2.1488 H         1 <0>         0.1215 
      55 H24        7.3243   -6.1149    0.6090 H         1 <0>         0.0567 
      56 H25        8.8209   -7.0533    0.3177 H         1 <0>         0.0562 
      57 H26        8.2181   -6.7903    2.0043 H         1 <0>         0.1014 
      58 H27        9.7340   -1.6059    5.1246 H         1 <0>         0.0471 
      59 H28        9.6243   -1.6487    6.8975 H         1 <0>         0.0943 
      60 H29       10.8435    0.3474    6.1925 H         1 <0>         0.0999 
      61 H30        9.4913    0.8806    5.1513 H         1 <0>         0.0621 
      62 H31        7.2168    1.5496    7.8926 H         1 <0>         0.0991 
      63 H32        7.4274    1.5432    6.1191 H         1 <0>         0.0615 
      64 H33        6.0377   -0.3949    6.8398 H         1 <0>         0.0908 
      65 H34        7.3360   -0.9318    7.9554 H         1 <0>         0.0448 
@<TRIPOS>BOND
       1        1        2 1        
       2        1       32 1        
       3        1       33 1        
       4        1       34 1        
       5        2        3 1        
       6        2        4 1        
       7        2        5 1        
       8        3       35 1        
       9        3       36 1        
      10        3       37 1        
      11        4       38 1        
      12        4       39 1        
      13        4       40 1        
      14        5        9 1        
      15        5        6 1        
      16        6        7 2        
      17        6       13 1        
      18        7        8 1        
      19        7       41 1        
      20        8        9 2        
      21        8       10 1        
      22       10       12 1        
      23       10       11 1        
      24       10       42 1        
      25       11       12 1        
      26       11       43 1        
      27       11       44 1        
      28       12       45 1        
      29       12       46 1        
      30       13       14 2        
      31       13       15 am       
      32       15       16 1        
      33       15       47 1        
      34       16       17 1        
      35       16       48 1        
      36       16       49 1        
      37       17       18 1        
      38       17       26 1        
      39       17       50 1        
      40       18       23 ar       
      41       18       19 ar       
      42       19       20 ar       
      43       19       51 1        
      44       20       21 ar       
      45       20       52 1        
      46       21       22 ar       
      47       21       24 1        
      48       22       23 ar       
      49       22       53 1        
      50       23       54 1        
      51       24       25 1        
      52       25       55 1        
      53       25       56 1        
      54       25       57 1        
      55       26       31 1        
      56       26       27 1        
      57       27       28 1        
      58       27       58 1        
      59       27       59 1        
      60       28       29 1        
      61       28       60 1        
      62       28       61 1        
      63       29       30 1        
      64       30       31 1        
      65       30       62 1        
      66       30       63 1        
      67       31       64 1        
      68       31       65 1        

