#        1GCZ_R01_S0001_C0000_L00008_S0001_C0019_G0010_E0001.mol2
#        Tue Jun  6 14:10:07 2017
#        Descriptor:     25    14    27    13     8    13
#        Energy - RMSD - RMSD MassCentre:     -67.8271    999.9999    999.9999
#        Receptor:       1  Surface Point:     1  Conformer:     0
#        Ligand:         8  Surface Point:     1  Conformer:    19
#        BUDE Formal Charge: 0
#        ATOM Count: 65
#        Heavy ATOM Count: 31
@<TRIPOS>MOLECULE
ZINC61400536_1GCZ_R01_S0001_C0000_L00008_S0001_C0019_G0010_E0001
 65 68 0 0 0
SMALL
USER_CHARGES
@<TRIPOS>ATOM
       1 C1         0.1098   -0.3669    6.6896 C.3       1 <0>        -0.1457 
       2 C2         0.4667    0.4426    5.4072 C.3       1 <0>         0.1768 
       3 C3         0.7882   -0.5046    4.2008 C.3       1 <0>        -0.1798 
       4 C4        -0.7851    1.2800    4.9731 C.3       1 <0>        -0.1802 
       5 N1         1.5500    1.3762    5.7369 N.pl3     1 <0>        -0.2386 
       6 C5         2.8366    1.2615    5.5229 C.2       1 <0>        -0.0401 
       7 C6         3.4366    2.3886    5.9289 C.2       1 <0>        -0.1820 
       8 C7         2.3770    3.2525    6.4165 C.2       1 <0>         0.0520 
       9 N2         1.3082    2.5948    6.2643 N.2       1 <0>        -0.2594 
      10 C8         2.4538    4.6403    6.9925 C.3       1 <0>        -0.0741 
      11 C9         1.4161    5.0186    8.0758 C.3       1 <0>        -0.1663 
      12 C10        1.2983    5.6118    6.6541 C.3       1 <0>        -0.1657 
      13 C11        3.6419    0.1500    4.9706 C.2       1 <0>         0.5920 
      14 O1         3.0823   -0.8847    4.6476 O.2       1 <0>        -0.5202 
      15 N3         4.9929    0.2563    4.8872 N.am      1 <0>        -0.7096 
      16 C12        5.7761   -0.8478    4.3455 C.3       1 <0>         0.1269 
      17 C13        7.3205   -0.6428    4.3515 C.3       1 <0>         0.1209 
      18 C14        7.8618   -1.8670    3.5753 C.ar      1 <0>        -0.1261 
      19 C15        7.8255   -3.1420    4.1501 C.ar      1 <0>        -0.0471 
      20 C16        8.3066   -4.2440    3.4396 C.ar      1 <0>        -0.1526 
      21 C17        8.8108   -4.1083    2.1427 C.ar      1 <0>         0.1329 
      22 C18        8.8554   -2.8345    1.5751 C.ar      1 <0>        -0.2055 
      23 C19        8.3858   -1.7241    2.2849 C.ar      1 <0>        -0.0791 
      24 O2         9.2741   -5.2580    1.4735 O.3       1 <0>        -0.3169 
      25 C20        8.6748   -6.5469    1.6950 C.3       1 <0>         0.0263 
      26 N4         7.9751   -0.7081    5.6878 N.3       1 <0>        -0.5235 
      27 C21        9.4433   -0.4563    5.5967 C.3       1 <0>         0.0085 
      28 C22        9.7488    1.0449    5.3640 C.3       1 <0>         0.0643 
      29 O3         9.1563    1.8233    6.4166 O.3       1 <0>        -0.3844 
      30 C23        7.7345    1.6504    6.4811 C.3       1 <0>         0.0641 
      31 C24        7.3793    0.1618    6.7300 C.3       1 <0>         0.0200 
      32 H1        -0.1550    0.3178    7.5128 H         1 <0>         0.0684 
      33 H2         0.9707   -0.9835    6.9972 H         1 <0>         0.0673 
      34 H3        -0.7454   -1.0295    6.4905 H         1 <0>         0.0762 
      35 H4         1.6705   -1.1270    4.4261 H         1 <0>         0.0772 
      36 H5        -0.0732   -1.1623    3.9962 H         1 <0>         0.1076 
      37 H6         1.0244    0.0483    3.2815 H         1 <0>         0.0533 
      38 H7        -0.5666    1.8591    4.0597 H         1 <0>         0.0541 
      39 H8        -1.0729    1.9788    5.7767 H         1 <0>         0.1047 
      40 H9        -1.6386    0.6134    4.7638 H         1 <0>         0.0783 
      41 H10        4.5002    2.6290    5.9186 H         1 <0>         0.1546 
      42 H11        3.4426    5.1172    7.1041 H         1 <0>         0.1185 
      43 H12        0.6751    4.2499    8.3504 H         1 <0>         0.0960 
      44 H13        1.7671    5.6884    8.8790 H         1 <0>         0.1015 
      45 H14        0.4850    5.2214    6.0202 H         1 <0>         0.1002 
      46 H15        1.5709    6.6730    6.5265 H         1 <0>         0.0943 
      47 H16        5.4445    1.0897    5.2006 H         1 <0>         0.4026 
      48 H17        5.4693   -1.0175    3.2972 H         1 <0>         0.0820 
      49 H18        5.5751   -1.7634    4.9294 H         1 <0>         0.0826 
      50 H19        7.5576    0.3106    3.8453 H         1 <0>         0.0584 
      51 H20        7.4257   -3.2845    5.1499 H         1 <0>         0.1381 
      52 H21        8.2800   -5.2332    3.8876 H         1 <0>         0.1314 
      53 H22        9.2502   -2.6708    0.5787 H         1 <0>         0.1295 
      54 H23        8.4312   -0.7399    1.8270 H         1 <0>         0.1215 
      55 H24        7.6123   -6.5069    1.4067 H         1 <0>         0.0567 
      56 H25        9.1785   -7.3093    1.0775 H         1 <0>         0.0562 
      57 H26        8.7381   -6.8162    2.7627 H         1 <0>         0.1014 
      58 H27        9.8896   -1.0186    4.7566 H         1 <0>         0.0471 
      59 H28        9.9852   -0.7538    6.5109 H         1 <0>         0.0943 
      60 H29       10.8416    1.2063    5.3309 H         1 <0>         0.0999 
      61 H30        9.3228    1.3891    4.4054 H         1 <0>         0.0621 
      62 H31        7.2998    2.2823    7.2768 H         1 <0>         0.0991 
      63 H32        7.3102    1.9805    5.5166 H         1 <0>         0.0615 
      64 H33        6.2798    0.0609    6.7251 H         1 <0>         0.0908 
      65 H34        7.7544   -0.1182    7.7311 H         1 <0>         0.0448 
@<TRIPOS>BOND
       1        1        2 1        
       2        1       32 1        
       3        1       33 1        
       4        1       34 1        
       5        2        3 1        
       6        2        4 1        
       7        2        5 1        
       8        3       35 1        
       9        3       36 1        
      10        3       37 1        
      11        4       38 1        
      12        4       39 1        
      13        4       40 1        
      14        5        9 1        
      15        5        6 1        
      16        6        7 2        
      17        6       13 1        
      18        7        8 1        
      19        7       41 1        
      20        8        9 2        
      21        8       10 1        
      22       10       12 1        
      23       10       11 1        
      24       10       42 1        
      25       11       12 1        
      26       11       43 1        
      27       11       44 1        
      28       12       45 1        
      29       12       46 1        
      30       13       14 2        
      31       13       15 am       
      32       15       16 1        
      33       15       47 1        
      34       16       17 1        
      35       16       48 1        
      36       16       49 1        
      37       17       18 1        
      38       17       26 1        
      39       17       50 1        
      40       18       23 ar       
      41       18       19 ar       
      42       19       20 ar       
      43       19       51 1        
      44       20       21 ar       
      45       20       52 1        
      46       21       22 ar       
      47       21       24 1        
      48       22       23 ar       
      49       22       53 1        
      50       23       54 1        
      51       24       25 1        
      52       25       55 1        
      53       25       56 1        
      54       25       57 1        
      55       26       31 1        
      56       26       27 1        
      57       27       28 1        
      58       27       58 1        
      59       27       59 1        
      60       28       29 1        
      61       28       60 1        
      62       28       61 1        
      63       29       30 1        
      64       30       31 1        
      65       30       62 1        
      66       30       63 1        
      67       31       64 1        
      68       31       65 1        

