#        1GCZ_R01_S0001_C0000_L00008_S0001_C0020_G0010_E0001.mol2
#        Tue Jun  6 09:57:23 2017
#        Descriptor:     17     6    18     9     8    12
#        Energy - RMSD - RMSD MassCentre:     -80.1405    999.9999    999.9999
#        Receptor:       1  Surface Point:     1  Conformer:     0
#        Ligand:         8  Surface Point:     1  Conformer:    20
#        BUDE Formal Charge: 0
#        ATOM Count: 65
#        Heavy ATOM Count: 31
@<TRIPOS>MOLECULE
ZINC61400536_1GCZ_R01_S0001_C0000_L00008_S0001_C0020_G0010_E0001
 65 68 0 0 0
SMALL
USER_CHARGES
@<TRIPOS>ATOM
       1 C1         4.6099    2.4799    7.0591 C.3       1 <0>        -0.1457 
       2 C2         4.6336    0.9380    6.8370 C.3       1 <0>         0.1768 
       3 C3         5.1574    0.5717    5.4061 C.3       1 <0>        -0.1798 
       4 C4         5.6510    0.2978    7.8428 C.3       1 <0>        -0.1802 
       5 N1         3.2984    0.4076    7.1366 N.pl3     1 <0>        -0.2386 
       6 C5         2.3274    0.0955    6.3157 C.2       1 <0>        -0.0401 
       7 C6         1.3156   -0.4160    7.0300 C.2       1 <0>        -0.1820 
       8 C7         1.7590   -0.4110    8.4120 C.2       1 <0>         0.0520 
       9 N2         2.9254    0.0762    8.3907 N.2       1 <0>        -0.2594 
      10 C8         1.0447   -0.8683    9.6546 C.3       1 <0>        -0.0741 
      11 C9         1.5202   -2.1905   10.3019 C.3       1 <0>        -0.1663 
      12 C10        0.1755   -2.1431    9.5427 C.3       1 <0>        -0.1657 
      13 C11        2.2000    0.2426    4.8491 C.2       1 <0>         0.5920 
      14 O1         3.1146    0.7510    4.2221 O.2       1 <0>        -0.5202 
      15 N3         1.0538   -0.1223    4.2194 N.am      1 <0>        -0.7096 
      16 C12        0.9384    0.0320    2.7742 C.3       1 <0>         0.1269 
      17 C13       -0.4401   -0.3614    2.1640 C.3       1 <0>         0.1209 
      18 C14       -0.2123   -0.2660    0.6365 C.ar      1 <0>        -0.1261 
      19 C15       -0.0672    0.9809    0.0192 C.ar      1 <0>        -0.0471 
      20 C16        0.1483    1.0590   -1.3586 C.ar      1 <0>        -0.1526 
      21 C17        0.2456   -0.0928   -2.1450 C.ar      1 <0>         0.1329 
      22 C18        0.0906   -1.3351   -1.5289 C.ar      1 <0>        -0.2055 
      23 C19       -0.1367   -1.4210   -0.1512 C.ar      1 <0>        -0.0791 
      24 O2         0.4719    0.0497   -3.5280 O.3       1 <0>        -0.3169 
      25 C20        1.2553    1.1367   -4.0513 C.3       1 <0>         0.0263 
      26 N4        -1.5631    0.5744    2.4497 N.3       1 <0>        -0.5235 
      27 C21       -2.8476    0.0913    1.8632 C.3       1 <0>         0.0085 
      28 C22       -3.4364   -1.0876    2.6784 C.3       1 <0>         0.0643 
      29 O3        -3.6136   -0.6834    4.0460 O.3       1 <0>        -0.3844 
      30 C23       -2.3796   -0.2784    4.6533 C.3       1 <0>         0.0641 
      31 C24       -1.7591    0.9133    3.8796 C.3       1 <0>         0.0200 
      32 H1         4.2803    2.7135    8.0854 H         1 <0>         0.0684 
      33 H2         3.9179    2.9528    6.3425 H         1 <0>         0.0673 
      34 H3         5.6160    2.8976    6.9060 H         1 <0>         0.0762 
      35 H4         4.4847    0.9825    4.6345 H         1 <0>         0.0772 
      36 H5         6.1696    0.9833    5.2569 H         1 <0>         0.1076 
      37 H6         5.1989   -0.5128    5.2369 H         1 <0>         0.0533 
      38 H7         5.6975   -0.7957    7.7041 H         1 <0>         0.0541 
      39 H8         5.3455    0.5117    8.8811 H         1 <0>         0.1047 
      40 H9         6.6611    0.7101    7.6811 H         1 <0>         0.0783 
      41 H10        0.3442   -0.7606    6.6741 H         1 <0>         0.1546 
      42 H11        0.6665   -0.1100   10.3617 H         1 <0>         0.1185 
      43 H12        2.3470   -2.7235    9.8041 H         1 <0>         0.0960 
      44 H13        1.4812   -2.2397   11.4032 H         1 <0>         0.1015 
      45 H14        0.1433   -2.6428    8.5604 H         1 <0>         0.1002 
      46 H15       -0.7463   -2.1633   10.1483 H         1 <0>         0.0943 
      47 H16        0.2931   -0.4919    4.7500 H         1 <0>         0.4026 
      48 H17        1.7064   -0.5982    2.2893 H         1 <0>         0.0820 
      49 H18        1.1171    1.0870    2.5008 H         1 <0>         0.0826 
      50 H19       -0.6943   -1.3880    2.4849 H         1 <0>         0.0584 
      51 H20       -0.1219    1.8949    0.6036 H         1 <0>         0.1381 
      52 H21        0.2587    2.0278   -1.8373 H         1 <0>         0.1314 
      53 H22        0.1421   -2.2590   -2.0940 H         1 <0>         0.1295 
      54 H23       -0.2573   -2.3973    0.3098 H         1 <0>         0.1215 
      55 H24        2.2760    1.0784   -3.6407 H         1 <0>         0.0567 
      56 H25        1.3137    1.0661   -5.1503 H         1 <0>         0.0562 
      57 H26        0.8124    2.1017   -3.7528 H         1 <0>         0.1014 
      58 H27       -2.7004   -0.2641    0.8272 H         1 <0>         0.0471 
      59 H28       -3.6237    0.8752    1.8306 H         1 <0>         0.0943 
      60 H29       -4.4002   -1.4045    2.2402 H         1 <0>         0.0999 
      61 H30       -2.7531   -1.9548    2.6659 H         1 <0>         0.0621 
      62 H31       -2.5373   -0.0026    5.7119 H         1 <0>         0.0991 
      63 H32       -1.6911   -1.1413    4.6269 H         1 <0>         0.0615 
      64 H33       -0.7903    1.1645    4.3460 H         1 <0>         0.0908 
      65 H34       -2.4359    1.7807    3.9843 H         1 <0>         0.0448 
@<TRIPOS>BOND
       1        1        2 1        
       2        1       32 1        
       3        1       33 1        
       4        1       34 1        
       5        2        3 1        
       6        2        4 1        
       7        2        5 1        
       8        3       35 1        
       9        3       36 1        
      10        3       37 1        
      11        4       38 1        
      12        4       39 1        
      13        4       40 1        
      14        5        9 1        
      15        5        6 1        
      16        6        7 2        
      17        6       13 1        
      18        7        8 1        
      19        7       41 1        
      20        8        9 2        
      21        8       10 1        
      22       10       12 1        
      23       10       11 1        
      24       10       42 1        
      25       11       12 1        
      26       11       43 1        
      27       11       44 1        
      28       12       45 1        
      29       12       46 1        
      30       13       14 2        
      31       13       15 am       
      32       15       16 1        
      33       15       47 1        
      34       16       17 1        
      35       16       48 1        
      36       16       49 1        
      37       17       18 1        
      38       17       26 1        
      39       17       50 1        
      40       18       23 ar       
      41       18       19 ar       
      42       19       20 ar       
      43       19       51 1        
      44       20       21 ar       
      45       20       52 1        
      46       21       22 ar       
      47       21       24 1        
      48       22       23 ar       
      49       22       53 1        
      50       23       54 1        
      51       24       25 1        
      52       25       55 1        
      53       25       56 1        
      54       25       57 1        
      55       26       31 1        
      56       26       27 1        
      57       27       28 1        
      58       27       58 1        
      59       27       59 1        
      60       28       29 1        
      61       28       60 1        
      62       28       61 1        
      63       29       30 1        
      64       30       31 1        
      65       30       62 1        
      66       30       63 1        
      67       31       64 1        
      68       31       65 1        

