#        1GCZ_R01_S0001_C0000_L00008_S0001_C0020_G0010_E0001.mol2
#        Tue Jun  6 14:10:09 2017
#        Descriptor:     23    13    28    13     8    13
#        Energy - RMSD - RMSD MassCentre:     -68.7447    999.9999    999.9999
#        Receptor:       1  Surface Point:     1  Conformer:     0
#        Ligand:         8  Surface Point:     1  Conformer:    20
#        BUDE Formal Charge: 0
#        ATOM Count: 65
#        Heavy ATOM Count: 31
@<TRIPOS>MOLECULE
ZINC61400536_1GCZ_R01_S0001_C0000_L00008_S0001_C0020_G0010_E0001
 65 68 0 0 0
SMALL
USER_CHARGES
@<TRIPOS>ATOM
       1 C1        -0.3102   -0.2450    5.5309 C.3       1 <0>        -0.1457 
       2 C2         0.3775    0.7464    4.5453 C.3       1 <0>         0.1768 
       3 C3         0.9239    0.0079    3.2756 C.3       1 <0>        -0.1798 
       4 C4        -0.6939    1.7636    4.0217 C.3       1 <0>        -0.1802 
       5 N1         1.3995    1.4976    5.2837 N.pl3     1 <0>        -0.2386 
       6 C5         2.6928    1.3021    5.3394 C.2       1 <0>        -0.0401 
       7 C6         3.2375    2.2747    6.0829 C.2       1 <0>        -0.1820 
       8 C7         2.1384    3.1321    6.4872 C.2       1 <0>         0.0520 
       9 N2         1.1029    2.6174    5.9763 N.2       1 <0>        -0.2594 
      10 C8         2.1484    4.3785    7.3298 C.3       1 <0>        -0.0741 
      11 C9         1.9350    5.7283    6.6047 C.3       1 <0>        -0.1663 
      12 C10        3.3351    5.3524    7.1387 C.3       1 <0>        -0.1657 
      13 C11        3.5476    0.2381    4.7683 C.2       1 <0>         0.5920 
      14 O1         3.0275   -0.6628    4.1313 O.2       1 <0>        -0.5202 
      15 N3         4.8843    0.2292    5.0067 N.am      1 <0>        -0.7096 
      16 C12        5.7155   -0.8273    4.4423 C.3       1 <0>         0.1269 
      17 C13        7.2240   -0.7743    4.8282 C.3       1 <0>         0.1209 
      18 C14        7.8692   -1.8829    3.9628 C.ar      1 <0>        -0.1261 
      19 C15        7.6349   -3.2317    4.2506 C.ar      1 <0>        -0.0471 
      20 C16        8.2124   -4.2269    3.4590 C.ar      1 <0>        -0.1526 
      21 C17        9.0124   -3.9064    2.3581 C.ar      1 <0>         0.1329 
      22 C18        9.2529   -2.5607    2.0787 C.ar      1 <0>        -0.2055 
      23 C19        8.6872   -1.5583    2.8739 C.ar      1 <0>        -0.0791 
      24 O2         9.5605   -4.9541    1.5924 O.3       1 <0>        -0.3169 
      25 C20        8.8615   -6.1989    1.4164 C.3       1 <0>         0.0263 
      26 N4         7.5436   -1.1430    6.2355 N.3       1 <0>        -0.5235 
      27 C21        9.0031   -1.0193    6.5213 C.3       1 <0>         0.0085 
      28 C22        9.4303    0.4633    6.6643 C.3       1 <0>         0.0643 
      29 O3         8.6481    1.0902    7.6939 O.3       1 <0>        -0.3844 
      30 C23        7.2438    1.0442    7.4086 C.3       1 <0>         0.0641 
      31 C24        6.7653   -0.4243    7.2727 C.3       1 <0>         0.0200 
      32 H1        -0.7252    0.3006    6.3949 H         1 <0>         0.0684 
      33 H2         0.4225   -0.9861    5.8915 H         1 <0>         0.0673 
      34 H3        -1.1274   -0.7763    5.0211 H         1 <0>         0.0762 
      35 H4         1.6963   -0.7259    3.5612 H         1 <0>         0.0772 
      36 H5         0.1022   -0.5169    2.7602 H         1 <0>         0.1076 
      37 H6         1.3965    0.6937    2.5593 H         1 <0>         0.0533 
      38 H7        -0.2387    2.4756    3.3124 H         1 <0>         0.0541 
      39 H8        -1.1260    2.3289    4.8647 H         1 <0>         0.1047 
      40 H9        -1.5074    1.2301    3.5019 H         1 <0>         0.0783 
      41 H10        4.2847    2.4109    6.3546 H         1 <0>         0.1546 
      42 H11        1.7490    4.3305    8.3574 H         1 <0>         0.1185 
      43 H12        1.8009    5.6942    5.5109 H         1 <0>         0.0960 
      44 H13        1.3697    6.4981    7.1567 H         1 <0>         0.1015 
      45 H14        4.0940    5.0762    6.3881 H         1 <0>         0.1002 
      46 H15        3.6883    5.8787    8.0415 H         1 <0>         0.0943 
      47 H16        5.2917    0.9452    5.5708 H         1 <0>         0.4026 
      48 H17        5.6544   -0.7739    3.3398 H         1 <0>         0.0820 
      49 H18        5.3374   -1.8105    4.7740 H         1 <0>         0.0826 
      50 H19        7.6209    0.2284    4.5862 H         1 <0>         0.0584 
      51 H20        7.0055   -3.5149    5.0894 H         1 <0>         0.1381 
      52 H21        8.0316   -5.2740    3.6846 H         1 <0>         0.1314 
      53 H22        9.8777   -2.2569    1.2463 H         1 <0>         0.1295 
      54 H23        8.8883   -0.5161    2.6419 H         1 <0>         0.1215 
      55 H24        7.8994   -6.0066    0.9153 H         1 <0>         0.0567 
      56 H25        9.4564   -6.8808    0.7859 H         1 <0>         0.0562 
      57 H26        8.6595   -6.6625    2.3966 H         1 <0>         0.1014 
      58 H27        9.6046   -1.4594    5.7053 H         1 <0>         0.0471 
      59 H28        9.3002   -1.5279    7.4545 H         1 <0>         0.0943 
      60 H29       10.5072    0.5237    6.9049 H         1 <0>         0.0999 
      61 H30        9.2584    1.0148    5.7233 H         1 <0>         0.0621 
      62 H31        6.6675    1.5593    8.1985 H         1 <0>         0.0991 
      63 H32        7.0742    1.5827    6.4597 H         1 <0>         0.0615 
      64 H33        5.6938   -0.4180    7.0062 H         1 <0>         0.0908 
      65 H34        6.8810   -0.9158    8.2557 H         1 <0>         0.0448 
@<TRIPOS>BOND
       1        1        2 1        
       2        1       32 1        
       3        1       33 1        
       4        1       34 1        
       5        2        3 1        
       6        2        4 1        
       7        2        5 1        
       8        3       35 1        
       9        3       36 1        
      10        3       37 1        
      11        4       38 1        
      12        4       39 1        
      13        4       40 1        
      14        5        9 1        
      15        5        6 1        
      16        6        7 2        
      17        6       13 1        
      18        7        8 1        
      19        7       41 1        
      20        8        9 2        
      21        8       10 1        
      22       10       12 1        
      23       10       11 1        
      24       10       42 1        
      25       11       12 1        
      26       11       43 1        
      27       11       44 1        
      28       12       45 1        
      29       12       46 1        
      30       13       14 2        
      31       13       15 am       
      32       15       16 1        
      33       15       47 1        
      34       16       17 1        
      35       16       48 1        
      36       16       49 1        
      37       17       18 1        
      38       17       26 1        
      39       17       50 1        
      40       18       23 ar       
      41       18       19 ar       
      42       19       20 ar       
      43       19       51 1        
      44       20       21 ar       
      45       20       52 1        
      46       21       22 ar       
      47       21       24 1        
      48       22       23 ar       
      49       22       53 1        
      50       23       54 1        
      51       24       25 1        
      52       25       55 1        
      53       25       56 1        
      54       25       57 1        
      55       26       31 1        
      56       26       27 1        
      57       27       28 1        
      58       27       58 1        
      59       27       59 1        
      60       28       29 1        
      61       28       60 1        
      62       28       61 1        
      63       29       30 1        
      64       30       31 1        
      65       30       62 1        
      66       30       63 1        
      67       31       64 1        
      68       31       65 1        

