#        1GCZ_R01_S0001_C0000_L00003_S0001_C0008_G0010_E0001.mol2
#        Tue Jun  6 14:03:42 2017
#        Descriptor:     29    14    19     9     4    15
#        Energy - RMSD - RMSD MassCentre:     -53.1633    999.9999    999.9999
#        Receptor:       1  Surface Point:     1  Conformer:     0
#        Ligand:         3  Surface Point:     1  Conformer:     8
#        BUDE Formal Charge: 0
#        ATOM Count: 58
#        Heavy ATOM Count: 30
@<TRIPOS>MOLECULE
ZINC61580633_1GCZ_R01_S0001_C0000_L00003_S0001_C0008_G0010_E0001
 58 59 0 0 0
SMALL
USER_CHARGES
@<TRIPOS>ATOM
       1 C1        -0.7931    0.6046    4.6603 C.3       1 <0>        -0.1532 
       2 C2        -1.7492   -0.4704    5.1688 C.3       1 <0>        -0.1224 
       3 C3        -0.9457   -1.6186    5.7779 C.3       1 <0>        -0.1198 
       4 C4        -1.9031   -2.6952    6.2870 C.3       1 <0>         0.0610 
       5 O1        -1.1512   -3.7696    6.8571 O.3       1 <0>        -0.3878 
       6 C5        -1.9973   -4.8107    7.3523 C.3       1 <0>         0.0487 
       7 C6        -1.1375   -5.9253    7.9465 C.3       1 <0>         0.1244 
       8 N1        -0.5510   -5.4675    9.2143 N.am      1 <0>        -0.7216 
       9 C7         0.2394   -6.2783    9.9120 C.2       1 <0>         0.5161 
      10 O2         0.7307   -5.8966   10.9729 O.2       1 <0>        -0.5151 
      11 C8         0.5338   -7.6685    9.4011 C.3       1 <0>         0.0490 
      12 O3         1.3653   -7.5829    8.2409 O.3       1 <0>        -0.3194 
      13 C9         1.7353   -8.7342    7.6408 C.2       1 <0>         0.5417 
      14 O4         1.3612   -9.8050    8.0902 O.2       1 <0>        -0.5337 
      15 C10        2.5955   -8.6973    6.4372 C.2       1 <0>        -0.2559 
      16 C11        3.0697   -9.8967    5.7111 C.2       1 <0>        -0.0791 
      17 C12        3.8427   -9.5871    4.6676 C.2       1 <0>        -0.2585 
      18 S1         4.0568   -7.8413    4.4709 S.3       1 <0>         0.3028 
      19 C13        3.0412   -7.5572    5.8923 C.2       1 <0>         0.0893 
      20 N2         2.7308   -6.3291    6.4142 N.am      1 <0>        -0.6099 
      21 C14        3.1966   -5.2241    5.8389 C.2       1 <0>         0.5551 
      22 O5         3.9064   -5.3048    4.8376 O.2       1 <0>        -0.4939 
      23 C15        2.8604   -3.8982    6.4039 C.ar      1 <0>        -0.1466 
      24 C16        3.3745   -2.7615    5.7685 C.ar      1 <0>        -0.0772 
      25 C17        3.1526   -1.4847    6.2979 C.ar      1 <0>        -0.1241 
      26 C18        2.4202   -1.3216    7.4795 C.ar      1 <0>        -0.0446 
      27 C19        1.8601   -2.4513    8.0879 C.ar      1 <0>        -0.1261 
      28 C20        2.0598   -3.7237    7.5391 C.ar      1 <0>        -0.0460 
      29 C21        2.2445    0.0580    8.0680 C.3       1 <0>        -0.0928 
      30 C22        3.3850    0.3441    9.0406 C.3       1 <0>        -0.1485 
      31 H1        -0.1469    0.1815    3.8940 H         1 <0>         0.0567 
      32 H2        -0.1862    0.9694    5.4863 H         1 <0>         0.0554 
      33 H3        -1.3655    1.4282    4.2388 H         1 <0>         0.0557 
      34 H4        -2.4043   -0.0453    5.9263 H         1 <0>         0.0632 
      35 H5        -2.3469   -0.8461    4.3409 H         1 <0>         0.0635 
      36 H6        -0.2907   -2.0452    5.0212 H         1 <0>         0.0711 
      37 H7        -0.3482   -1.2442    6.6065 H         1 <0>         0.0704 
      38 H8        -2.5583   -2.2700    7.0446 H         1 <0>         0.0498 
      39 H9        -2.5007   -3.0708    5.4591 H         1 <0>         0.0505 
      40 H10       -2.5961   -5.2111    6.5369 H         1 <0>         0.0584 
      41 H11       -2.6535   -4.4101    8.1223 H         1 <0>         0.0702 
      42 H12       -0.3411   -6.1800    7.2504 H         1 <0>         0.0872 
      43 H13       -1.7550   -6.8022    8.1291 H         1 <0>         0.0805 
      44 H14       -0.7479   -4.5377    9.5560 H         1 <0>         0.4058 
      45 H15        1.0469   -8.2382   10.1731 H         1 <0>         0.1008 
      46 H16       -0.3988   -8.1654    9.1424 H         1 <0>         0.0999 
      47 H17        2.7981  -10.9002    6.0034 H         1 <0>         0.1557 
      48 H18        4.2722  -10.3332    4.0157 H         1 <0>         0.1929 
      49 H19        2.1480   -6.2628    7.2363 H         1 <0>         0.4317 
      50 H20        3.9526   -2.8685    4.8626 H         1 <0>         0.1287 
      51 H21        3.5489   -0.6148    5.7956 H         1 <0>         0.1326 
      52 H22        1.2690   -2.3269    8.9832 H         1 <0>         0.1342 
      53 H23        1.5549   -4.5498    8.0176 H         1 <0>         0.1410 
      54 H24        1.2950    0.1077    8.5968 H         1 <0>         0.0777 
      55 H25        2.2544    0.7963    7.2690 H         1 <0>         0.0771 
      56 H26        4.3330    0.3064    8.5080 H         1 <0>         0.0623 
      57 H27        3.3827   -0.4033    9.8313 H         1 <0>         0.0572 
      58 H28        3.2512    1.3327    9.4746 H         1 <0>         0.0578 
@<TRIPOS>BOND
       1        1        2 1        
       2        1       31 1        
       3        1       32 1        
       4        1       33 1        
       5        2        3 1        
       6        2       34 1        
       7        2       35 1        
       8        3        4 1        
       9        3       36 1        
      10        3       37 1        
      11        4        5 1        
      12        4       38 1        
      13        4       39 1        
      14        5        6 1        
      15        6        7 1        
      16        6       40 1        
      17        6       41 1        
      18        7        8 1        
      19        7       42 1        
      20        7       43 1        
      21        8        9 am       
      22        8       44 1        
      23        9       10 2        
      24        9       11 1        
      25       11       12 1        
      26       11       45 1        
      27       11       46 1        
      28       12       13 1        
      29       13       14 2        
      30       13       15 1        
      31       15       19 2        
      32       15       16 1        
      33       16       17 2        
      34       16       47 1        
      35       17       18 1        
      36       17       48 1        
      37       18       19 1        
      38       19       20 1        
      39       20       21 am       
      40       20       49 1        
      41       21       22 2        
      42       21       23 1        
      43       23       28 ar       
      44       23       24 ar       
      45       24       25 ar       
      46       24       50 1        
      47       25       26 ar       
      48       25       51 1        
      49       26       27 ar       
      50       26       29 1        
      51       27       28 ar       
      52       27       52 1        
      53       28       53 1        
      54       29       30 1        
      55       29       54 1        
      56       29       55 1        
      57       30       56 1        
      58       30       57 1        
      59       30       58 1        

