#        1GCZ_R01_S0001_C0000_L00008_S0001_C0021_G0010_E0001.mol2
#        Tue Jun  6 09:57:24 2017
#        Descriptor:      2    12    34     9     9    12
#        Energy - RMSD - RMSD MassCentre:     -78.6306    999.9999    999.9999
#        Receptor:       1  Surface Point:     1  Conformer:     0
#        Ligand:         8  Surface Point:     1  Conformer:    21
#        BUDE Formal Charge: 0
#        ATOM Count: 65
#        Heavy ATOM Count: 31
@<TRIPOS>MOLECULE
ZINC61400536_1GCZ_R01_S0001_C0000_L00008_S0001_C0021_G0010_E0001
 65 68 0 0 0
SMALL
USER_CHARGES
@<TRIPOS>ATOM
       1 C1         4.4998    4.3461    6.1447 C.3       1 <0>        -0.1457 
       2 C2         4.6871    2.8087    6.3141 C.3       1 <0>         0.1768 
       3 C3         5.2036    2.1438    4.9923 C.3       1 <0>        -0.1798 
       4 C4         5.7998    2.5502    7.3873 C.3       1 <0>        -0.1802 
       5 N1         3.4287    2.2424    6.8137 N.pl3     1 <0>        -0.2386 
       6 C5         2.4733    1.6366    6.1547 C.2       1 <0>        -0.0401 
       7 C6         1.5470    1.2262    7.0316 C.2       1 <0>        -0.1820 
       8 C7         2.0297    1.6271    8.3404 C.2       1 <0>         0.0520 
       9 N2         3.1338    2.2060    8.1303 N.2       1 <0>        -0.2594 
      10 C8         1.4093    1.4329    9.6971 C.3       1 <0>        -0.0741 
      11 C9        -0.1229    1.6134    9.8106 C.3       1 <0>        -0.1663 
      12 C10        0.8251    2.6847   10.3940 C.3       1 <0>        -0.1657 
      13 C11        2.2850    1.3918    4.7078 C.2       1 <0>         0.5920 
      14 O1         3.1178    1.8119    3.9217 O.2       1 <0>        -0.5202 
      15 N3         1.1672    0.7667    4.2569 N.am      1 <0>        -0.7096 
      16 C12        0.9908    0.5354    2.8282 C.3       1 <0>         0.1269 
      17 C13       -0.3539   -0.1352    2.4168 C.3       1 <0>         0.1209 
      18 C14       -0.1855   -0.4100    0.9034 C.ar      1 <0>        -0.1261 
      19 C15       -0.1986    0.6465   -0.0134 C.ar      1 <0>        -0.0471 
      20 C16       -0.0359    0.3920   -1.3770 C.ar      1 <0>        -0.1526 
      21 C17        0.1639   -0.9066   -1.8548 C.ar      1 <0>         0.1329 
      22 C18        0.1666   -1.9600   -0.9398 C.ar      1 <0>        -0.2055 
      23 C19       -0.0070   -1.7142    0.4264 C.ar      1 <0>        -0.0791 
      24 O2         0.3301   -1.0994   -3.2402 O.3       1 <0>        -0.3169 
      25 C20        0.9718   -0.1094   -4.0632 C.3       1 <0>         0.0263 
      26 N4        -1.5643    0.7262    2.5242 N.3       1 <0>        -0.5235 
      27 C21       -2.8049   -0.0153    2.1526 C.3       1 <0>         0.0085 
      28 C22       -3.2341   -1.0001    3.2694 C.3       1 <0>         0.0643 
      29 O3        -3.4124   -0.2804    4.5003 O.3       1 <0>        -0.3844 
      30 C23       -2.2126    0.3863    4.9145 C.3       1 <0>         0.0641 
      31 C24       -1.7521    1.3971    3.8328 C.3       1 <0>         0.0200 
      32 H1         4.1782    4.7996    7.0973 H         1 <0>         0.0684 
      33 H2         3.7378    4.5497    5.3740 H         1 <0>         0.0673 
      34 H3         5.4482    4.8088    5.8339 H         1 <0>         0.0762 
      35 H4         4.4660    2.2756    4.1828 H         1 <0>         0.0772 
      36 H5         6.1590    2.6022    4.6865 H         1 <0>         0.1076 
      37 H6         5.3597    1.0616    5.0975 H         1 <0>         0.0533 
      38 H7         5.9628    1.4676    7.5239 H         1 <0>         0.0541 
      39 H8         5.5048    2.9901    8.3550 H         1 <0>         0.1047 
      40 H9         6.7526    3.0058    7.0693 H         1 <0>         0.0783 
      41 H10        0.6091    0.7076    6.8301 H         1 <0>         0.1546 
      42 H11        1.8446    0.6832   10.3799 H         1 <0>         0.1185 
      43 H12       -0.6652    1.8858    8.8901 H         1 <0>         0.0960 
      44 H13       -0.6436    0.9521   10.5237 H         1 <0>         0.1015 
      45 H14        0.8908    3.6392    9.8462 H         1 <0>         0.1002 
      46 H15        0.9241    2.7262   11.4918 H         1 <0>         0.0943 
      47 H16        0.4689    0.4709    4.9063 H         1 <0>         0.4026 
      48 H17        1.8084   -0.1180    2.4726 H         1 <0>         0.0820 
      49 H18        1.0430    1.4983    2.2899 H         1 <0>         0.0826 
      50 H19       -0.4828   -1.0662    2.9983 H         1 <0>         0.0584 
      51 H20       -0.3360    1.6691    0.3261 H         1 <0>         0.1381 
      52 H21       -0.0483    1.2129   -2.0883 H         1 <0>         0.1314 
      53 H22        0.3025   -2.9875   -1.2579 H         1 <0>         0.1295 
      54 H23       -0.0045   -2.5478    1.1231 H         1 <0>         0.1215 
      55 H24        2.0049    0.0404   -3.7110 H         1 <0>         0.0567 
      56 H25        1.0036   -0.4515   -5.1112 H         1 <0>         0.0562 
      57 H26        0.4342    0.8509   -3.9902 H         1 <0>         0.1014 
      58 H27       -2.6515   -0.6065    1.2316 H         1 <0>         0.0471 
      59 H28       -3.6637    0.6533    1.9701 H         1 <0>         0.0943 
      60 H29       -4.1700   -1.5122    2.9810 H         1 <0>         0.0999 
      61 H30       -2.4597   -1.7696    3.4344 H         1 <0>         0.0621 
      62 H31       -2.3670    0.9056    5.8779 H         1 <0>         0.0991 
      63 H32       -1.4340   -0.3821    5.0648 H         1 <0>         0.0615 
      64 H33       -0.8031    1.8537    4.1646 H         1 <0>         0.0908 
      65 H34       -2.5172    2.1909    3.7564 H         1 <0>         0.0448 
@<TRIPOS>BOND
       1        1        2 1        
       2        1       32 1        
       3        1       33 1        
       4        1       34 1        
       5        2        3 1        
       6        2        4 1        
       7        2        5 1        
       8        3       35 1        
       9        3       36 1        
      10        3       37 1        
      11        4       38 1        
      12        4       39 1        
      13        4       40 1        
      14        5        9 1        
      15        5        6 1        
      16        6        7 2        
      17        6       13 1        
      18        7        8 1        
      19        7       41 1        
      20        8        9 2        
      21        8       10 1        
      22       10       12 1        
      23       10       11 1        
      24       10       42 1        
      25       11       12 1        
      26       11       43 1        
      27       11       44 1        
      28       12       45 1        
      29       12       46 1        
      30       13       14 2        
      31       13       15 am       
      32       15       16 1        
      33       15       47 1        
      34       16       17 1        
      35       16       48 1        
      36       16       49 1        
      37       17       18 1        
      38       17       26 1        
      39       17       50 1        
      40       18       23 ar       
      41       18       19 ar       
      42       19       20 ar       
      43       19       51 1        
      44       20       21 ar       
      45       20       52 1        
      46       21       22 ar       
      47       21       24 1        
      48       22       23 ar       
      49       22       53 1        
      50       23       54 1        
      51       24       25 1        
      52       25       55 1        
      53       25       56 1        
      54       25       57 1        
      55       26       31 1        
      56       26       27 1        
      57       27       28 1        
      58       27       58 1        
      59       27       59 1        
      60       28       29 1        
      61       28       60 1        
      62       28       61 1        
      63       29       30 1        
      64       30       31 1        
      65       30       62 1        
      66       30       63 1        
      67       31       64 1        
      68       31       65 1        

