#        1GCZ_R01_S0001_C0000_L00008_S0001_C0021_G0010_E0001.mol2
#        Tue Jun  6 14:10:11 2017
#        Descriptor:     25    14    27    13     8    13
#        Energy - RMSD - RMSD MassCentre:     -68.3132    999.9999    999.9999
#        Receptor:       1  Surface Point:     1  Conformer:     0
#        Ligand:         8  Surface Point:     1  Conformer:    21
#        BUDE Formal Charge: 0
#        ATOM Count: 65
#        Heavy ATOM Count: 31
@<TRIPOS>MOLECULE
ZINC61400536_1GCZ_R01_S0001_C0000_L00008_S0001_C0021_G0010_E0001
 65 68 0 0 0
SMALL
USER_CHARGES
@<TRIPOS>ATOM
       1 C1        -0.0345   -0.3258    6.6099 C.3       1 <0>        -0.1457 
       2 C2         0.3224    0.4837    5.3275 C.3       1 <0>         0.1768 
       3 C3         0.6439   -0.4636    4.1211 C.3       1 <0>        -0.1798 
       4 C4        -0.9294    1.3210    4.8934 C.3       1 <0>        -0.1802 
       5 N1         1.4057    1.4173    5.6572 N.pl3     1 <0>        -0.2386 
       6 C5         2.6923    1.3025    5.4432 C.2       1 <0>        -0.0401 
       7 C6         3.2923    2.4297    5.8492 C.2       1 <0>        -0.1820 
       8 C7         2.2327    3.2935    6.3368 C.2       1 <0>         0.0520 
       9 N2         1.1638    2.6358    6.1846 N.2       1 <0>        -0.2594 
      10 C8         2.3095    4.6813    6.9128 C.3       1 <0>        -0.0741 
      11 C9         3.4900    4.9924    7.8629 C.3       1 <0>        -0.1663 
      12 C10        2.0631    4.8314    8.4328 C.3       1 <0>        -0.1657 
      13 C11        3.4976    0.1910    4.8909 C.2       1 <0>         0.5920 
      14 O1         2.9380   -0.8436    4.5679 O.2       1 <0>        -0.5202 
      15 N3         4.8486    0.2973    4.8075 N.am      1 <0>        -0.7096 
      16 C12        5.6318   -0.8067    4.2658 C.3       1 <0>         0.1269 
      17 C13        7.1762   -0.6018    4.2718 C.3       1 <0>         0.1209 
      18 C14        7.7175   -1.8260    3.4956 C.ar      1 <0>        -0.1261 
      19 C15        7.6812   -3.1009    4.0704 C.ar      1 <0>        -0.0471 
      20 C16        8.1623   -4.2030    3.3599 C.ar      1 <0>        -0.1526 
      21 C17        8.6665   -4.0673    2.0630 C.ar      1 <0>         0.1329 
      22 C18        8.7111   -2.7935    1.4954 C.ar      1 <0>        -0.2055 
      23 C19        8.2415   -1.6831    2.2052 C.ar      1 <0>        -0.0791 
      24 O2         9.1298   -5.2170    1.3938 O.3       1 <0>        -0.3169 
      25 C20        8.5305   -6.5058    1.6153 C.3       1 <0>         0.0263 
      26 N4         7.8308   -0.6671    5.6081 N.3       1 <0>        -0.5235 
      27 C21        9.2990   -0.4153    5.5170 C.3       1 <0>         0.0085 
      28 C22        9.6045    1.0859    5.2843 C.3       1 <0>         0.0643 
      29 O3         9.0120    1.8643    6.3369 O.3       1 <0>        -0.3844 
      30 C23        7.5902    1.6914    6.4014 C.3       1 <0>         0.0641 
      31 C24        7.2350    0.2029    6.6503 C.3       1 <0>         0.0200 
      32 H1        -0.2993    0.3588    7.4331 H         1 <0>         0.0684 
      33 H2         0.8264   -0.9424    6.9175 H         1 <0>         0.0673 
      34 H3        -0.8897   -0.9885    6.4108 H         1 <0>         0.0762 
      35 H4         1.5262   -1.0860    4.3464 H         1 <0>         0.0772 
      36 H5        -0.2175   -1.1213    3.9165 H         1 <0>         0.1076 
      37 H6         0.8801    0.0894    3.2018 H         1 <0>         0.0533 
      38 H7        -0.7109    1.9002    3.9800 H         1 <0>         0.0541 
      39 H8        -1.2172    2.0198    5.6970 H         1 <0>         0.1047 
      40 H9        -1.7829    0.6545    4.6841 H         1 <0>         0.0783 
      41 H10        4.3559    2.6701    5.8389 H         1 <0>         0.1546 
      42 H11        1.9636    5.5322    6.3011 H         1 <0>         0.1185 
      43 H12        4.1971    4.1720    8.0692 H         1 <0>         0.0960 
      44 H13        3.9053    6.0131    7.8119 H         1 <0>         0.1015 
      45 H14        1.8575    3.9087    9.0003 H         1 <0>         0.1002 
      46 H15        1.5435    5.7486    8.7574 H         1 <0>         0.0943 
      47 H16        5.3002    1.1308    5.1209 H         1 <0>         0.4026 
      48 H17        5.3250   -0.9765    3.2175 H         1 <0>         0.0820 
      49 H18        5.4308   -1.7223    4.8497 H         1 <0>         0.0826 
      50 H19        7.4133    0.3517    3.7656 H         1 <0>         0.0584 
      51 H20        7.2814   -3.2435    5.0702 H         1 <0>         0.1381 
      52 H21        8.1357   -5.1922    3.8079 H         1 <0>         0.1314 
      53 H22        9.1059   -2.6297    0.4990 H         1 <0>         0.1295 
      54 H23        8.2869   -0.6989    1.7473 H         1 <0>         0.1215 
      55 H24        7.4680   -6.4658    1.3270 H         1 <0>         0.0567 
      56 H25        9.0342   -7.2683    0.9978 H         1 <0>         0.0562 
      57 H26        8.5938   -6.7751    2.6830 H         1 <0>         0.1014 
      58 H27        9.7453   -0.9776    4.6769 H         1 <0>         0.0471 
      59 H28        9.8409   -0.7127    6.4312 H         1 <0>         0.0943 
      60 H29       10.6973    1.2474    5.2512 H         1 <0>         0.0999 
      61 H30        9.1785    1.4302    4.3257 H         1 <0>         0.0621 
      62 H31        7.1555    2.3234    7.1971 H         1 <0>         0.0991 
      63 H32        7.1659    2.0215    5.4369 H         1 <0>         0.0615 
      64 H33        6.1355    0.1019    6.6454 H         1 <0>         0.0908 
      65 H34        7.6101   -0.0771    7.6514 H         1 <0>         0.0448 
@<TRIPOS>BOND
       1        1        2 1        
       2        1       32 1        
       3        1       33 1        
       4        1       34 1        
       5        2        3 1        
       6        2        4 1        
       7        2        5 1        
       8        3       35 1        
       9        3       36 1        
      10        3       37 1        
      11        4       38 1        
      12        4       39 1        
      13        4       40 1        
      14        5        9 1        
      15        5        6 1        
      16        6        7 2        
      17        6       13 1        
      18        7        8 1        
      19        7       41 1        
      20        8        9 2        
      21        8       10 1        
      22       10       12 1        
      23       10       11 1        
      24       10       42 1        
      25       11       12 1        
      26       11       43 1        
      27       11       44 1        
      28       12       45 1        
      29       12       46 1        
      30       13       14 2        
      31       13       15 am       
      32       15       16 1        
      33       15       47 1        
      34       16       17 1        
      35       16       48 1        
      36       16       49 1        
      37       17       18 1        
      38       17       26 1        
      39       17       50 1        
      40       18       23 ar       
      41       18       19 ar       
      42       19       20 ar       
      43       19       51 1        
      44       20       21 ar       
      45       20       52 1        
      46       21       22 ar       
      47       21       24 1        
      48       22       23 ar       
      49       22       53 1        
      50       23       54 1        
      51       24       25 1        
      52       25       55 1        
      53       25       56 1        
      54       25       57 1        
      55       26       31 1        
      56       26       27 1        
      57       27       28 1        
      58       27       58 1        
      59       27       59 1        
      60       28       29 1        
      61       28       60 1        
      62       28       61 1        
      63       29       30 1        
      64       30       31 1        
      65       30       62 1        
      66       30       63 1        
      67       31       64 1        
      68       31       65 1        

