#        1GCZ_R01_S0001_C0000_L00008_S0001_C0022_G0010_E0001.mol2
#        Tue Jun  6 09:57:25 2017
#        Descriptor:     24    13    27    13     8    13
#        Energy - RMSD - RMSD MassCentre:     -73.1681    999.9999    999.9999
#        Receptor:       1  Surface Point:     1  Conformer:     0
#        Ligand:         8  Surface Point:     1  Conformer:    22
#        BUDE Formal Charge: 0
#        ATOM Count: 65
#        Heavy ATOM Count: 31
@<TRIPOS>MOLECULE
ZINC61400536_1GCZ_R01_S0001_C0000_L00008_S0001_C0022_G0010_E0001
 65 68 0 0 0
SMALL
USER_CHARGES
@<TRIPOS>ATOM
       1 C1        -0.2896    0.0422    6.0349 C.3       1 <0>        -0.1457 
       2 C2         0.3229    0.9971    4.9671 C.3       1 <0>         0.1768 
       3 C3         0.6942    0.2273    3.6534 C.3       1 <0>        -0.1798 
       4 C4        -0.7587    2.0535    4.5537 C.3       1 <0>        -0.1802 
       5 N1         1.4501    1.7111    5.5782 N.pl3     1 <0>        -0.2386 
       6 C5         2.7327    1.4631    5.4920 C.2       1 <0>        -0.0401 
       7 C6         3.3954    2.4180    6.1586 C.2       1 <0>        -0.1820 
       8 C7         2.3835    3.3229    6.6723 C.2       1 <0>         0.0520 
       9 N2         1.2777    2.8473    6.2859 N.2       1 <0>        -0.2594 
      10 C8         2.5374    4.5741    7.4935 C.3       1 <0>        -0.0741 
      11 C9         3.8064    5.4271    7.2584 C.3       1 <0>        -0.1663 
      12 C10        3.6665    4.5924    8.5509 C.3       1 <0>        -0.1657 
      13 C11        3.4752    0.3606    4.8422 C.2       1 <0>         0.5920 
      14 O1         2.8516   -0.5229    4.2779 O.2       1 <0>        -0.5202 
      15 N3         4.8286    0.2986    4.9305 N.am      1 <0>        -0.7096 
      16 C12        5.5488   -0.7954    4.2899 C.3       1 <0>         0.1269 
      17 C13        7.0918   -0.8015    4.5050 C.3       1 <0>         0.1209 
      18 C14        7.5915   -1.9421    3.5866 C.ar      1 <0>        -0.1261 
      19 C15        7.3370   -3.2780    3.9149 C.ar      1 <0>        -0.0471 
      20 C16        7.7823   -4.3020    3.0759 C.ar      1 <0>        -0.1526 
      21 C17        8.4665   -4.0228    1.8891 C.ar      1 <0>         0.1329 
      22 C18        8.7280   -2.6903    1.5686 C.ar      1 <0>        -0.2055 
      23 C19        8.2952   -1.6596    2.4096 C.ar      1 <0>        -0.0791 
      24 O2         8.8834   -5.0979    1.0799 O.3       1 <0>        -0.3169 
      25 C20        8.1199   -6.3142    0.9976 C.3       1 <0>         0.0263 
      26 N4         7.5514   -1.1725    5.8724 N.3       1 <0>        -0.5235 
      27 C21        9.0375   -1.1068    5.9925 C.3       1 <0>         0.0085 
      28 C22        9.5369    0.3581    6.0693 C.3       1 <0>         0.0643 
      29 O3         8.9003    1.0243    7.1720 O.3       1 <0>        -0.3844 
      30 C23        7.4722    1.0338    7.0451 C.3       1 <0>         0.0641 
      31 C24        6.9231   -0.4147    6.9809 C.3       1 <0>         0.0200 
      32 H1        -0.5834    0.6109    6.9331 H         1 <0>         0.0684 
      33 H2         0.4485   -0.7256    6.3207 H         1 <0>         0.0673 
      34 H3        -1.1793   -0.4588    5.6256 H         1 <0>         0.0762 
      35 H4         1.4637   -0.5354    3.8602 H         1 <0>         0.0772 
      36 H5        -0.2003   -0.2672    3.2390 H         1 <0>         0.1076 
      37 H6         1.1108    0.8877    2.8809 H         1 <0>         0.0533 
      38 H7        -0.3574    2.7409    3.7897 H         1 <0>         0.0541 
      39 H8        -1.0710    2.6424    5.4327 H         1 <0>         0.1047 
      40 H9        -1.6458    1.5501    4.1340 H         1 <0>         0.0783 
      41 H10        4.4711    2.5132    6.3105 H         1 <0>         0.1546 
      42 H11        1.6341    5.1446    7.7701 H         1 <0>         0.1185 
      43 H12        4.5273    5.0577    6.5106 H         1 <0>         0.0960 
      44 H13        3.6857    6.5203    7.3433 H         1 <0>         0.1015 
      45 H14        4.2949    3.6898    8.6282 H         1 <0>         0.1002 
      46 H15        3.4555    5.1404    9.4847 H         1 <0>         0.0943 
      47 H16        5.3248    1.0014    5.4372 H         1 <0>         0.4026 
      48 H17        5.3671   -0.7477    3.2005 H         1 <0>         0.0820 
      49 H18        5.1710   -1.7597    4.6734 H         1 <0>         0.0826 
      50 H19        7.4990    0.1822    4.2083 H         1 <0>         0.0584 
      51 H20        6.7944   -3.5288    4.8218 H         1 <0>         0.1381 
      52 H21        7.5860   -5.3390    3.3328 H         1 <0>         0.1314 
      53 H22        9.2676   -2.4187    0.6683 H         1 <0>         0.1295 
      54 H23        8.5106   -0.6283    2.1442 H         1 <0>         0.1215 
      55 H24        7.1163   -6.0863    0.6044 H         1 <0>         0.0567 
      56 H25        8.6129   -7.0247    0.3132 H         1 <0>         0.0562 
      57 H26        8.0102   -6.7617    1.9997 H         1 <0>         0.1014 
      58 H27        9.5261   -1.5773    5.1201 H         1 <0>         0.0471 
      59 H28        9.4163   -1.6201    6.8930 H         1 <0>         0.0943 
      60 H29       10.6355    0.3760    6.1879 H         1 <0>         0.0999 
      61 H30        9.2833    0.9091    5.1467 H         1 <0>         0.0621 
      62 H31        7.0088    1.5782    7.8880 H         1 <0>         0.0991 
      63 H32        7.2195    1.5717    6.1146 H         1 <0>         0.0615 
      64 H33        5.8297   -0.3663    6.8352 H         1 <0>         0.0908 
      65 H34        7.1281   -0.9032    7.9508 H         1 <0>         0.0448 
@<TRIPOS>BOND
       1        1        2 1        
       2        1       32 1        
       3        1       33 1        
       4        1       34 1        
       5        2        3 1        
       6        2        4 1        
       7        2        5 1        
       8        3       35 1        
       9        3       36 1        
      10        3       37 1        
      11        4       38 1        
      12        4       39 1        
      13        4       40 1        
      14        5        9 1        
      15        5        6 1        
      16        6        7 2        
      17        6       13 1        
      18        7        8 1        
      19        7       41 1        
      20        8        9 2        
      21        8       10 1        
      22       10       12 1        
      23       10       11 1        
      24       10       42 1        
      25       11       12 1        
      26       11       43 1        
      27       11       44 1        
      28       12       45 1        
      29       12       46 1        
      30       13       14 2        
      31       13       15 am       
      32       15       16 1        
      33       15       47 1        
      34       16       17 1        
      35       16       48 1        
      36       16       49 1        
      37       17       18 1        
      38       17       26 1        
      39       17       50 1        
      40       18       23 ar       
      41       18       19 ar       
      42       19       20 ar       
      43       19       51 1        
      44       20       21 ar       
      45       20       52 1        
      46       21       22 ar       
      47       21       24 1        
      48       22       23 ar       
      49       22       53 1        
      50       23       54 1        
      51       24       25 1        
      52       25       55 1        
      53       25       56 1        
      54       25       57 1        
      55       26       31 1        
      56       26       27 1        
      57       27       28 1        
      58       27       58 1        
      59       27       59 1        
      60       28       29 1        
      61       28       60 1        
      62       28       61 1        
      63       29       30 1        
      64       30       31 1        
      65       30       62 1        
      66       30       63 1        
      67       31       64 1        
      68       31       65 1        

