#        1GCZ_R01_S0001_C0000_L00008_S0001_C0022_G0010_E0001.mol2
#        Tue Jun  6 14:10:13 2017
#        Descriptor:     25    14    27    13     8    13
#        Energy - RMSD - RMSD MassCentre:     -70.1491    999.9999    999.9999
#        Receptor:       1  Surface Point:     1  Conformer:     0
#        Ligand:         8  Surface Point:     1  Conformer:    22
#        BUDE Formal Charge: 0
#        ATOM Count: 65
#        Heavy ATOM Count: 31
@<TRIPOS>MOLECULE
ZINC61400536_1GCZ_R01_S0001_C0000_L00008_S0001_C0022_G0010_E0001
 65 68 0 0 0
SMALL
USER_CHARGES
@<TRIPOS>ATOM
       1 C1        -0.0994   -0.3630    6.7081 C.3       1 <0>        -0.1457 
       2 C2         0.2576    0.4465    5.4257 C.3       1 <0>         0.1768 
       3 C3         0.5791   -0.5007    4.2193 C.3       1 <0>        -0.1798 
       4 C4        -0.9942    1.2839    4.9916 C.3       1 <0>        -0.1802 
       5 N1         1.3409    1.3801    5.7554 N.pl3     1 <0>        -0.2386 
       6 C5         2.6274    1.2654    5.5415 C.2       1 <0>        -0.0401 
       7 C6         3.2275    2.3925    5.9474 C.2       1 <0>        -0.1820 
       8 C7         2.1679    3.2564    6.4351 C.2       1 <0>         0.0520 
       9 N2         1.0990    2.5987    6.2828 N.2       1 <0>        -0.2594 
      10 C8         2.2447    4.6442    7.0110 C.3       1 <0>        -0.0741 
      11 C9         3.3547    5.5771    6.4720 C.3       1 <0>        -0.1663 
      12 C10        3.4722    4.9783    7.8913 C.3       1 <0>        -0.1657 
      13 C11        3.4327    0.1539    4.9892 C.2       1 <0>         0.5920 
      14 O1         2.8732   -0.8808    4.6662 O.2       1 <0>        -0.5202 
      15 N3         4.7838    0.2602    4.9057 N.am      1 <0>        -0.7096 
      16 C12        5.5670   -0.8438    4.3641 C.3       1 <0>         0.1269 
      17 C13        7.1114   -0.6389    4.3700 C.3       1 <0>         0.1209 
      18 C14        7.6527   -1.8631    3.5939 C.ar      1 <0>        -0.1261 
      19 C15        7.6164   -3.1380    4.1686 C.ar      1 <0>        -0.0471 
      20 C16        8.0975   -4.2401    3.4581 C.ar      1 <0>        -0.1526 
      21 C17        8.6017   -4.1044    2.1612 C.ar      1 <0>         0.1329 
      22 C18        8.6463   -2.8306    1.5937 C.ar      1 <0>        -0.2055 
      23 C19        8.1767   -1.7202    2.3034 C.ar      1 <0>        -0.0791 
      24 O2         9.0650   -5.2541    1.4920 O.3       1 <0>        -0.3169 
      25 C20        8.4657   -6.5430    1.7135 C.3       1 <0>         0.0263 
      26 N4         7.7660   -0.7042    5.7064 N.3       1 <0>        -0.5235 
      27 C21        9.2342   -0.4524    5.6153 C.3       1 <0>         0.0085 
      28 C22        9.5397    1.0488    5.3825 C.3       1 <0>         0.0643 
      29 O3         8.9472    1.8272    6.4352 O.3       1 <0>        -0.3844 
      30 C23        7.5254    1.6543    6.4996 C.3       1 <0>         0.0641 
      31 C24        7.1702    0.1657    6.7485 C.3       1 <0>         0.0200 
      32 H1        -0.3641    0.3217    7.5313 H         1 <0>         0.0684 
      33 H2         0.7616   -0.9796    7.0157 H         1 <0>         0.0673 
      34 H3        -0.9545   -1.0256    6.5090 H         1 <0>         0.0762 
      35 H4         1.4614   -1.1231    4.4447 H         1 <0>         0.0772 
      36 H5        -0.2823   -1.1584    4.0147 H         1 <0>         0.1076 
      37 H6         0.8153    0.0522    3.3000 H         1 <0>         0.0533 
      38 H7        -0.7757    1.8630    4.0783 H         1 <0>         0.0541 
      39 H8        -1.2820    1.9827    5.7952 H         1 <0>         0.1047 
      40 H9        -1.8477    0.6173    4.7823 H         1 <0>         0.0783 
      41 H10        4.2911    2.6329    5.9371 H         1 <0>         0.1546 
      42 H11        1.3100    5.1507    7.3075 H         1 <0>         0.1185 
      43 H12        4.0303    5.1621    5.7060 H         1 <0>         0.0960 
      44 H13        3.0999    6.6474    6.3908 H         1 <0>         0.1015 
      45 H14        4.2198    4.1802    8.0319 H         1 <0>         0.1002 
      46 H15        3.2958    5.6584    8.7417 H         1 <0>         0.0943 
      47 H16        5.2354    1.0936    5.2191 H         1 <0>         0.4026 
      48 H17        5.2602   -1.0136    3.3157 H         1 <0>         0.0820 
      49 H18        5.3660   -1.7595    4.9479 H         1 <0>         0.0826 
      50 H19        7.3485    0.3145    3.8638 H         1 <0>         0.0584 
      51 H20        7.2166   -3.2806    5.1685 H         1 <0>         0.1381 
      52 H21        8.0709   -5.2293    3.9061 H         1 <0>         0.1314 
      53 H22        9.0410   -2.6669    0.5972 H         1 <0>         0.1295 
      54 H23        8.2221   -0.7360    1.8455 H         1 <0>         0.1215 
      55 H24        7.4032   -6.5030    1.4252 H         1 <0>         0.0567 
      56 H25        8.9694   -7.3054    1.0960 H         1 <0>         0.0562 
      57 H26        8.5290   -6.8123    2.7812 H         1 <0>         0.1014 
      58 H27        9.6805   -1.0147    4.7751 H         1 <0>         0.0471 
      59 H28        9.7761   -0.7499    6.5295 H         1 <0>         0.0943 
      60 H29       10.6325    1.2102    5.3494 H         1 <0>         0.0999 
      61 H30        9.1137    1.3930    4.4239 H         1 <0>         0.0621 
      62 H31        7.0907    2.2862    7.2954 H         1 <0>         0.0991 
      63 H32        7.1011    1.9844    5.5351 H         1 <0>         0.0615 
      64 H33        6.0707    0.0648    6.7436 H         1 <0>         0.0908 
      65 H34        7.5453   -0.1143    7.7496 H         1 <0>         0.0448 
@<TRIPOS>BOND
       1        1        2 1        
       2        1       32 1        
       3        1       33 1        
       4        1       34 1        
       5        2        3 1        
       6        2        4 1        
       7        2        5 1        
       8        3       35 1        
       9        3       36 1        
      10        3       37 1        
      11        4       38 1        
      12        4       39 1        
      13        4       40 1        
      14        5        9 1        
      15        5        6 1        
      16        6        7 2        
      17        6       13 1        
      18        7        8 1        
      19        7       41 1        
      20        8        9 2        
      21        8       10 1        
      22       10       12 1        
      23       10       11 1        
      24       10       42 1        
      25       11       12 1        
      26       11       43 1        
      27       11       44 1        
      28       12       45 1        
      29       12       46 1        
      30       13       14 2        
      31       13       15 am       
      32       15       16 1        
      33       15       47 1        
      34       16       17 1        
      35       16       48 1        
      36       16       49 1        
      37       17       18 1        
      38       17       26 1        
      39       17       50 1        
      40       18       23 ar       
      41       18       19 ar       
      42       19       20 ar       
      43       19       51 1        
      44       20       21 ar       
      45       20       52 1        
      46       21       22 ar       
      47       21       24 1        
      48       22       23 ar       
      49       22       53 1        
      50       23       54 1        
      51       24       25 1        
      52       25       55 1        
      53       25       56 1        
      54       25       57 1        
      55       26       31 1        
      56       26       27 1        
      57       27       28 1        
      58       27       58 1        
      59       27       59 1        
      60       28       29 1        
      61       28       60 1        
      62       28       61 1        
      63       29       30 1        
      64       30       31 1        
      65       30       62 1        
      66       30       63 1        
      67       31       64 1        
      68       31       65 1        

