#        1GCZ_R01_S0001_C0000_L00008_S0001_C0023_G0010_E0001.mol2
#        Tue Jun  6 09:57:26 2017
#        Descriptor:     35    10    28     8     7    15
#        Energy - RMSD - RMSD MassCentre:     -69.5084    999.9999    999.9999
#        Receptor:       1  Surface Point:     1  Conformer:     0
#        Ligand:         8  Surface Point:     1  Conformer:    23
#        BUDE Formal Charge: 0
#        ATOM Count: 65
#        Heavy ATOM Count: 31
@<TRIPOS>MOLECULE
ZINC61400536_1GCZ_R01_S0001_C0000_L00008_S0001_C0023_G0010_E0001
 65 68 0 0 0
SMALL
USER_CHARGES
@<TRIPOS>ATOM
       1 C1         1.5308   -4.2481    8.3769 C.3       1 <0>        -0.1457 
       2 C2         0.0030   -4.4628    8.1601 C.3       1 <0>         0.1768 
       3 C3        -0.3572   -4.5293    6.6363 C.3       1 <0>        -0.1798 
       4 C4        -0.4017   -5.8544    8.7573 C.3       1 <0>        -0.1802 
       5 N1        -0.7194   -3.4203    8.8983 N.pl3     1 <0>        -0.2386 
       6 C5        -1.2340   -2.2994    8.4591 C.2       1 <0>        -0.0401 
       7 C6        -1.8603   -1.6925    9.4762 C.2       1 <0>        -0.1820 
       8 C7        -1.7010   -2.5675   10.6233 C.2       1 <0>         0.0520 
       9 N2        -1.0322   -3.5551   10.2043 N.2       1 <0>        -0.2594 
      10 C8        -2.1941   -2.4044   12.0353 C.3       1 <0>        -0.0741 
      11 C9        -2.1241   -0.9881   12.6536 C.3       1 <0>        -0.1663 
      12 C10       -1.1394   -2.0830   13.1206 C.3       1 <0>        -0.1657 
      13 C11       -1.1970   -1.6620    7.1244 C.2       1 <0>         0.5920 
      14 O1        -0.5843   -2.2089    6.2225 O.2       1 <0>        -0.5202 
      15 N3        -1.7808   -0.4525    6.9247 N.am      1 <0>        -0.7096 
      16 C12       -1.7335    0.1678    5.6061 C.3       1 <0>         0.1269 
      17 C13       -0.3816    0.0269    4.8448 C.3       1 <0>         0.1209 
      18 C14        0.6301    0.7826    5.7389 C.ar      1 <0>        -0.1261 
      19 C15        0.5926    2.1783    5.8261 C.ar      1 <0>        -0.0471 
      20 C16        1.5025    2.8532    6.6430 C.ar      1 <0>        -0.1526 
      21 C17        2.4493    2.1601    7.4033 C.ar      1 <0>         0.1329 
      22 C18        2.4914    0.7687    7.3071 C.ar      1 <0>        -0.2055 
      23 C19        1.5908    0.0862    6.4823 C.ar      1 <0>        -0.0791 
      24 O2         3.3349    2.8956    8.2148 O.3       1 <0>        -0.3169 
      25 C20        3.7931    4.2038    7.8303 C.3       1 <0>         0.0263 
      26 N4        -0.3130    0.7043    3.5201 N.3       1 <0>        -0.5235 
      27 C21        1.0007    0.4758    2.8501 C.3       1 <0>         0.0085 
      28 C22        1.1045   -0.9608    2.2784 C.3       1 <0>         0.0643 
      29 O3         0.0149   -1.1956    1.3713 O.3       1 <0>        -0.3844 
      30 C23       -1.2603   -1.0482    2.0097 C.3       1 <0>         0.0641 
      31 C24       -1.4174    0.3831    2.5848 C.3       1 <0>         0.0200 
      32 H1         1.7680   -4.2481    9.4541 H         1 <0>         0.0684 
      33 H2         1.8410   -3.2842    7.9402 H         1 <0>         0.0673 
      34 H3         2.0973   -5.0550    7.8890 H         1 <0>         0.0762 
      35 H4        -0.1083   -3.5755    6.1413 H         1 <0>         0.0772 
      36 H5         0.2044   -5.3443    6.1500 H         1 <0>         0.1076 
      37 H6        -1.4286   -4.6990    6.4631 H         1 <0>         0.0533 
      38 H7        -1.4793   -6.0406    8.6111 H         1 <0>         0.0541 
      39 H8        -0.1793   -5.8842    9.8374 H         1 <0>         0.1047 
      40 H9         0.1596   -6.6631    8.2599 H         1 <0>         0.0783 
      41 H10       -2.3794   -0.7335    9.4741 H         1 <0>         0.1546 
      42 H11       -3.0393   -3.0247   12.3797 H         1 <0>         0.1185 
      43 H12       -1.7048   -0.1862   12.0237 H         1 <0>         0.0960 
      44 H13       -2.9412   -0.7118   13.3413 H         1 <0>         0.1015 
      45 H14       -0.0930   -1.9828   12.7880 H         1 <0>         0.1002 
      46 H15       -1.3110   -2.5235   14.1172 H         1 <0>         0.0943 
      47 H16       -2.2374    0.0086    7.6835 H         1 <0>         0.4026 
      48 H17       -1.9395    1.2483    5.7165 H         1 <0>         0.0820 
      49 H18       -2.5096   -0.2797    4.9603 H         1 <0>         0.0826 
      50 H19       -0.1342   -1.0462    4.7495 H         1 <0>         0.0584 
      51 H20       -0.1403    2.7463    5.2606 H         1 <0>         0.1381 
      52 H21        1.4740    3.9372    6.7084 H         1 <0>         0.1314 
      53 H22        3.2149    0.1833    7.8633 H         1 <0>         0.1295 
      54 H23        1.6410   -0.9971    6.4189 H         1 <0>         0.1215 
      55 H24        2.9271    4.8786    7.7384 H         1 <0>         0.0567 
      56 H25        4.4736    4.6074    8.5987 H         1 <0>         0.0562 
      57 H26        4.3041    4.1550    6.8540 H         1 <0>         0.1014 
      58 H27        1.8361    0.6098    3.5610 H         1 <0>         0.0471 
      59 H28        1.1766    1.1671    2.0080 H         1 <0>         0.0943 
      60 H29        2.0730   -1.0921    1.7627 H         1 <0>         0.0999 
      61 H30        1.0422   -1.7111    3.0861 H         1 <0>         0.0621 
      62 H31       -2.0797   -1.2640    1.3001 H         1 <0>         0.0991 
      63 H32       -1.3161   -1.7884    2.8272 H         1 <0>         0.0615 
      64 H33       -2.3876    0.4432    3.1086 H         1 <0>         0.0908 
      65 H34       -1.4293    1.0939    1.7387 H         1 <0>         0.0448 
@<TRIPOS>BOND
       1        1        2 1        
       2        1       32 1        
       3        1       33 1        
       4        1       34 1        
       5        2        3 1        
       6        2        4 1        
       7        2        5 1        
       8        3       35 1        
       9        3       36 1        
      10        3       37 1        
      11        4       38 1        
      12        4       39 1        
      13        4       40 1        
      14        5        9 1        
      15        5        6 1        
      16        6        7 2        
      17        6       13 1        
      18        7        8 1        
      19        7       41 1        
      20        8        9 2        
      21        8       10 1        
      22       10       12 1        
      23       10       11 1        
      24       10       42 1        
      25       11       12 1        
      26       11       43 1        
      27       11       44 1        
      28       12       45 1        
      29       12       46 1        
      30       13       14 2        
      31       13       15 am       
      32       15       16 1        
      33       15       47 1        
      34       16       17 1        
      35       16       48 1        
      36       16       49 1        
      37       17       18 1        
      38       17       26 1        
      39       17       50 1        
      40       18       23 ar       
      41       18       19 ar       
      42       19       20 ar       
      43       19       51 1        
      44       20       21 ar       
      45       20       52 1        
      46       21       22 ar       
      47       21       24 1        
      48       22       23 ar       
      49       22       53 1        
      50       23       54 1        
      51       24       25 1        
      52       25       55 1        
      53       25       56 1        
      54       25       57 1        
      55       26       31 1        
      56       26       27 1        
      57       27       28 1        
      58       27       58 1        
      59       27       59 1        
      60       28       29 1        
      61       28       60 1        
      62       28       61 1        
      63       29       30 1        
      64       30       31 1        
      65       30       62 1        
      66       30       63 1        
      67       31       64 1        
      68       31       65 1        

