#        1GCZ_R01_S0001_C0000_L00008_S0001_C0023_G0010_E0001.mol2
#        Tue Jun  6 14:10:15 2017
#        Descriptor:     16     8    11     8     7    15
#        Energy - RMSD - RMSD MassCentre:     -69.3270    999.9999    999.9999
#        Receptor:       1  Surface Point:     1  Conformer:     0
#        Ligand:         8  Surface Point:     1  Conformer:    23
#        BUDE Formal Charge: 0
#        ATOM Count: 65
#        Heavy ATOM Count: 31
@<TRIPOS>MOLECULE
ZINC61400536_1GCZ_R01_S0001_C0000_L00008_S0001_C0023_G0010_E0001
 65 68 0 0 0
SMALL
USER_CHARGES
@<TRIPOS>ATOM
       1 C1         1.4989   -4.2549    8.3958 C.3       1 <0>        -0.1457 
       2 C2        -0.0214   -4.4718    8.1327 C.3       1 <0>         0.1768 
       3 C3        -0.3367   -4.5272    6.5986 C.3       1 <0>        -0.1798 
       4 C4        -0.4395   -5.8690    8.7069 C.3       1 <0>        -0.1802 
       5 N1        -0.7679   -3.4369    8.8576 N.pl3     1 <0>        -0.2386 
       6 C5        -1.2725   -2.3140    8.4122 C.2       1 <0>        -0.0401 
       7 C6        -1.9300   -1.7167    9.4153 C.2       1 <0>        -0.1820 
       8 C7        -1.8018   -2.6002   10.5597 C.2       1 <0>         0.0520 
       9 N2        -1.1183   -3.5828   10.1527 N.2       1 <0>        -0.2594 
      10 C8        -2.3364   -2.4495   11.9579 C.3       1 <0>        -0.0741 
      11 C9        -2.2884   -1.0379   12.5890 C.3       1 <0>        -0.1663 
      12 C10       -1.3148   -2.1340   13.0761 C.3       1 <0>        -0.1657 
      13 C11       -1.1983   -1.6659    7.0842 C.2       1 <0>         0.5920 
      14 O1        -0.5580   -2.2042    6.1963 O.2       1 <0>        -0.5202 
      15 N3        -1.7793   -0.4564    6.8770 N.am      1 <0>        -0.7096 
      16 C12       -1.6952    0.1744    5.5652 C.3       1 <0>         0.1269 
      17 C13       -0.3212    0.0428    4.8427 C.3       1 <0>         0.1209 
      18 C14        0.6618    0.7940    5.7718 C.ar      1 <0>        -0.1261 
      19 C15        0.6179    2.1890    5.8687 C.ar      1 <0>        -0.0471 
      20 C16        1.5017    2.8597    6.7172 C.ar      1 <0>        -0.1526 
      21 C17        2.4277    2.1630    7.4994 C.ar      1 <0>         0.1329 
      22 C18        2.4765    0.7725    7.3936 C.ar      1 <0>        -0.2055 
      23 C19        1.6023    0.0943    6.5376 C.ar      1 <0>        -0.0791 
      24 O2         3.2872    2.8943    8.3422 O.3       1 <0>        -0.3169 
      25 C20        3.7529    4.2067    7.9814 C.3       1 <0>         0.0263 
      26 N4        -0.2159    0.7309    3.5259 N.3       1 <0>        -0.5235 
      27 C21        1.1174    0.5109    2.8927 C.3       1 <0>         0.0085 
      28 C22        1.2419   -0.9209    2.3131 C.3       1 <0>         0.0643 
      29 O3         0.1800   -1.1512    1.3728 O.3       1 <0>        -0.3844 
      30 C23       -1.1138   -1.0121    1.9748 C.3       1 <0>         0.0641 
      31 C24       -1.2916    0.4142    2.5561 C.3       1 <0>         0.0200 
      32 H1         1.7045   -4.2628    9.4793 H         1 <0>         0.0684 
      33 H2         1.8190   -3.2868    7.9758 H         1 <0>         0.0673 
      34 H3         2.0816   -5.0565    7.9183 H         1 <0>         0.0762 
      35 H4        -0.0760   -3.5689    6.1185 H         1 <0>         0.0772 
      36 H5         0.2411   -5.3369    6.1225 H         1 <0>         0.1076 
      37 H6        -1.4021   -4.6983    6.3928 H         1 <0>         0.0533 
      38 H7        -1.5118   -6.0569    8.5278 H         1 <0>         0.0541 
      39 H8        -0.2487   -5.9068    9.7928 H         1 <0>         0.1047 
      40 H9         0.1383   -6.6724    8.2198 H         1 <0>         0.0783 
      41 H10       -2.4514   -0.7590    9.4054 H         1 <0>         0.1546 
      42 H11       -3.1896   -3.0747   12.2726 H         1 <0>         0.1185 
      43 H12       -1.8531   -0.2300   11.9779 H         1 <0>         0.0960 
      44 H13       -3.1261   -0.7691   13.2546 H         1 <0>         0.1015 
      45 H14       -0.2594   -2.0286   12.7750 H         1 <0>         0.1002 
      46 H15       -1.5142   -2.5828   14.0638 H         1 <0>         0.0943 
      47 H16       -2.2591   -0.0025    7.6257 H         1 <0>         0.4026 
      48 H17       -1.9074    1.2534    5.6779 H         1 <0>         0.0820 
      49 H18       -2.4509   -0.2700    4.8934 H         1 <0>         0.0826 
      50 H19       -0.0682   -1.0288    4.7462 H         1 <0>         0.0584 
      51 H20       -0.0998    2.7595    5.2865 H         1 <0>         0.1381 
      52 H21        1.4683    3.9430    6.7901 H         1 <0>         0.1314 
      53 H22        3.1850    0.1846    7.9661 H         1 <0>         0.1295 
      54 H23        1.6572   -0.9884    6.4671 H         1 <0>         0.1215 
      55 H24        2.8881    4.8800    7.8695 H         1 <0>         0.0567 
      56 H25        4.4095    4.6059    8.7725 H         1 <0>         0.0562 
      57 H26        4.2923    4.1668    7.0201 H         1 <0>         0.1014 
      58 H27        1.9313    0.6414    3.6289 H         1 <0>         0.0471 
      59 H28        1.3160    1.2093    2.0616 H         1 <0>         0.0943 
      60 H29        2.2254   -1.0456    1.8250 H         1 <0>         0.0999 
      61 H30        1.1581   -1.6776    3.1128 H         1 <0>         0.0621 
      62 H31       -1.9115   -1.2244    1.2399 H         1 <0>         0.0991 
      63 H32       -1.1914   -1.7588    2.7845 H         1 <0>         0.0615 
      64 H33       -2.2768    0.4678    3.0518 H         1 <0>         0.0908 
      65 H34       -1.2807    1.1317    1.7156 H         1 <0>         0.0448 
@<TRIPOS>BOND
       1        1        2 1        
       2        1       32 1        
       3        1       33 1        
       4        1       34 1        
       5        2        3 1        
       6        2        4 1        
       7        2        5 1        
       8        3       35 1        
       9        3       36 1        
      10        3       37 1        
      11        4       38 1        
      12        4       39 1        
      13        4       40 1        
      14        5        9 1        
      15        5        6 1        
      16        6        7 2        
      17        6       13 1        
      18        7        8 1        
      19        7       41 1        
      20        8        9 2        
      21        8       10 1        
      22       10       12 1        
      23       10       11 1        
      24       10       42 1        
      25       11       12 1        
      26       11       43 1        
      27       11       44 1        
      28       12       45 1        
      29       12       46 1        
      30       13       14 2        
      31       13       15 am       
      32       15       16 1        
      33       15       47 1        
      34       16       17 1        
      35       16       48 1        
      36       16       49 1        
      37       17       18 1        
      38       17       26 1        
      39       17       50 1        
      40       18       23 ar       
      41       18       19 ar       
      42       19       20 ar       
      43       19       51 1        
      44       20       21 ar       
      45       20       52 1        
      46       21       22 ar       
      47       21       24 1        
      48       22       23 ar       
      49       22       53 1        
      50       23       54 1        
      51       24       25 1        
      52       25       55 1        
      53       25       56 1        
      54       25       57 1        
      55       26       31 1        
      56       26       27 1        
      57       27       28 1        
      58       27       58 1        
      59       27       59 1        
      60       28       29 1        
      61       28       60 1        
      62       28       61 1        
      63       29       30 1        
      64       30       31 1        
      65       30       62 1        
      66       30       63 1        
      67       31       64 1        
      68       31       65 1        

