#        1GCZ_R01_S0001_C0000_L00008_S0001_C0024_G0010_E0001.mol2
#        Tue Jun  6 09:57:27 2017
#        Descriptor:      3    10    24     8     7    15
#        Energy - RMSD - RMSD MassCentre:     -70.7592    999.9999    999.9999
#        Receptor:       1  Surface Point:     1  Conformer:     0
#        Ligand:         8  Surface Point:     1  Conformer:    24
#        BUDE Formal Charge: 0
#        ATOM Count: 65
#        Heavy ATOM Count: 31
@<TRIPOS>MOLECULE
ZINC61400536_1GCZ_R01_S0001_C0000_L00008_S0001_C0024_G0010_E0001
 65 68 0 0 0
SMALL
USER_CHARGES
@<TRIPOS>ATOM
       1 C1         1.7327   -4.1162    8.0343 C.3       1 <0>        -0.1457 
       2 C2         0.1878   -4.3132    7.9932 C.3       1 <0>         0.1768 
       3 C3        -0.3485   -4.3443    6.5210 C.3       1 <0>        -0.1798 
       4 C4        -0.1597   -5.7136    8.6057 C.3       1 <0>        -0.1802 
       5 N1        -0.4321   -3.2804    8.8316 N.pl3     1 <0>        -0.2386 
       6 C5        -0.9821   -2.1462    8.4780 C.2       1 <0>        -0.0401 
       7 C6        -1.4788   -1.5556    9.5733 C.2       1 <0>        -0.1820 
       8 C7        -1.1963   -2.4559   10.6762 C.2       1 <0>         0.0520 
       9 N2        -0.5918   -3.4402   10.1622 N.2       1 <0>        -0.2594 
      10 C8        -1.5195   -2.3186   12.1391 C.3       1 <0>        -0.0741 
      11 C9        -0.5261   -2.9418   13.1480 C.3       1 <0>        -0.1663 
      12 C10       -1.8982   -3.6087   12.9043 C.3       1 <0>        -0.1657 
      13 C11       -1.0941   -1.4809    7.1612 C.2       1 <0>         0.5920 
      14 O1        -0.5969   -2.0138    6.1831 O.2       1 <0>        -0.5202 
      15 N3        -1.6839   -0.2626    7.0553 N.am      1 <0>        -0.7096 
      16 C12       -1.7840    0.3851    5.7530 C.3       1 <0>         0.1269 
      17 C13       -0.5318    0.2487    4.8362 C.3       1 <0>         0.1209 
      18 C14        0.5855    0.9767    5.6209 C.ar      1 <0>        -0.1261 
      19 C15        0.5737    2.3706    5.7398 C.ar      1 <0>        -0.0471 
      20 C16        1.5801    3.0202    6.4581 C.ar      1 <0>        -0.1526 
      21 C17        2.6014    2.3031    7.0885 C.ar      1 <0>         0.1329 
      22 C18        2.6168    0.9137    6.9602 C.ar      1 <0>        -0.2055 
      23 C19        1.6187    0.2566    6.2328 C.ar      1 <0>        -0.0791 
      24 O2         3.5837    3.0136    7.8055 O.3       1 <0>        -0.3169 
      25 C20        3.2713    4.2383    8.4925 C.3       1 <0>         0.0263 
      26 N4        -0.6109    0.9535    3.5264 N.3       1 <0>        -0.5235 
      27 C21        0.6131    0.7279    2.7029 C.3       1 <0>         0.0085 
      28 C22        0.6338   -0.6971    2.0944 C.3       1 <0>         0.0643 
      29 O3        -0.5567   -0.9033    1.3163 O.3       1 <0>        -0.3844 
      30 C23       -1.7470   -0.7586    2.1023 C.3       1 <0>         0.0641 
      31 C24       -1.8203    0.6616    2.7203 C.3       1 <0>         0.0200 
      32 H1         2.0939   -4.1410    9.0761 H         1 <0>         0.0684 
      33 H2         2.0004   -3.1459    7.5837 H         1 <0>         0.0673 
      34 H3         2.2295   -4.9174    7.4674 H         1 <0>         0.0762 
      35 H4        -0.1486   -3.3825    6.0195 H         1 <0>         0.0772 
      36 H5         0.1436   -5.1537    5.9561 H         1 <0>         0.1076 
      37 H6        -1.4345   -4.5012    6.4708 H         1 <0>         0.0533 
      38 H7        -1.2490   -5.8875    8.5827 H         1 <0>         0.0541 
      39 H8         0.1869   -5.7681    9.6516 H         1 <0>         0.1047 
      40 H9         0.3308   -6.5164    8.0300 H         1 <0>         0.0783 
      41 H10       -1.9841   -0.5923    9.6510 H         1 <0>         0.1546 
      42 H11       -2.0310   -1.4054   12.4886 H         1 <0>         0.1185 
      43 H12        0.3531   -3.4601   12.7310 H         1 <0>         0.0960 
      44 H13       -0.3859   -2.3989   14.0980 H         1 <0>         0.1015 
      45 H14       -1.8965   -4.5502   12.3305 H         1 <0>         0.1002 
      46 H15       -2.6577   -3.5038   13.6974 H         1 <0>         0.0943 
      47 H16       -2.0438    0.1862    7.8714 H         1 <0>         0.4026 
      48 H17       -1.9639    1.4647    5.9083 H         1 <0>         0.0820 
      49 H18       -2.6351   -0.0420    5.1934 H         1 <0>         0.0826 
      50 H19       -0.3090   -0.8241    4.6911 H         1 <0>         0.0584 
      51 H20       -0.2139    2.9566    5.2753 H         1 <0>         0.1381 
      52 H21        1.5713    4.1027    6.5480 H         1 <0>         0.1314 
      53 H22        3.3937    0.3105    7.4162 H         1 <0>         0.1295 
      54 H23        1.6492   -0.8256    6.1422 H         1 <0>         0.1215 
      55 H24        2.5051    4.0387    9.2586 H         1 <0>         0.0567 
      56 H25        4.1725    4.6331    8.9908 H         1 <0>         0.0562 
      57 H26        2.8708    4.9806    7.7816 H         1 <0>         0.1014 
      58 H27        1.5272    0.8397    3.3139 H         1 <0>         0.0471 
      59 H28        0.6972    1.4354    1.8601 H         1 <0>         0.0943 
      60 H29        1.5340   -0.8257    1.4665 H         1 <0>         0.0999 
      61 H30        0.6580   -1.4637    2.8886 H         1 <0>         0.0621 
      62 H31       -2.6459   -0.9523    1.4891 H         1 <0>         0.0991 
      63 H32       -1.7152   -1.5154    2.9057 H         1 <0>         0.0615 
      64 H33       -2.7220    0.7188    3.3550 H         1 <0>         0.0908 
      65 H34       -1.9230    1.3902    1.8958 H         1 <0>         0.0448 
@<TRIPOS>BOND
       1        1        2 1        
       2        1       32 1        
       3        1       33 1        
       4        1       34 1        
       5        2        3 1        
       6        2        4 1        
       7        2        5 1        
       8        3       35 1        
       9        3       36 1        
      10        3       37 1        
      11        4       38 1        
      12        4       39 1        
      13        4       40 1        
      14        5        9 1        
      15        5        6 1        
      16        6        7 2        
      17        6       13 1        
      18        7        8 1        
      19        7       41 1        
      20        8        9 2        
      21        8       10 1        
      22       10       12 1        
      23       10       11 1        
      24       10       42 1        
      25       11       12 1        
      26       11       43 1        
      27       11       44 1        
      28       12       45 1        
      29       12       46 1        
      30       13       14 2        
      31       13       15 am       
      32       15       16 1        
      33       15       47 1        
      34       16       17 1        
      35       16       48 1        
      36       16       49 1        
      37       17       18 1        
      38       17       26 1        
      39       17       50 1        
      40       18       23 ar       
      41       18       19 ar       
      42       19       20 ar       
      43       19       51 1        
      44       20       21 ar       
      45       20       52 1        
      46       21       22 ar       
      47       21       24 1        
      48       22       23 ar       
      49       22       53 1        
      50       23       54 1        
      51       24       25 1        
      52       25       55 1        
      53       25       56 1        
      54       25       57 1        
      55       26       31 1        
      56       26       27 1        
      57       27       28 1        
      58       27       58 1        
      59       27       59 1        
      60       28       29 1        
      61       28       60 1        
      62       28       61 1        
      63       29       30 1        
      64       30       31 1        
      65       30       62 1        
      66       30       63 1        
      67       31       64 1        
      68       31       65 1        

