#        1GCZ_R01_S0001_C0000_L00008_S0001_C0024_G0010_E0001.mol2
#        Tue Jun  6 14:10:18 2017
#        Descriptor:     35    10    28     8     7    15
#        Energy - RMSD - RMSD MassCentre:     -69.4932    999.9999    999.9999
#        Receptor:       1  Surface Point:     1  Conformer:     0
#        Ligand:         8  Surface Point:     1  Conformer:    24
#        BUDE Formal Charge: 0
#        ATOM Count: 65
#        Heavy ATOM Count: 31
@<TRIPOS>MOLECULE
ZINC61400536_1GCZ_R01_S0001_C0000_L00008_S0001_C0024_G0010_E0001
 65 68 0 0 0
SMALL
USER_CHARGES
@<TRIPOS>ATOM
       1 C1         1.6265   -4.0757    8.2951 C.3       1 <0>        -0.1457 
       2 C2         0.0987   -4.2904    8.0783 C.3       1 <0>         0.1768 
       3 C3        -0.2616   -4.3569    6.5545 C.3       1 <0>        -0.1798 
       4 C4        -0.3060   -5.6820    8.6755 C.3       1 <0>        -0.1802 
       5 N1        -0.6237   -3.2479    8.8165 N.pl3     1 <0>        -0.2386 
       6 C5        -1.1383   -2.1270    8.3772 C.2       1 <0>        -0.0401 
       7 C6        -1.7647   -1.5201    9.3944 C.2       1 <0>        -0.1820 
       8 C7        -1.6053   -2.3951   10.5415 C.2       1 <0>         0.0520 
       9 N2        -0.9365   -3.3827   10.1225 N.2       1 <0>        -0.2594 
      10 C8        -2.0984   -2.2320   11.9535 C.3       1 <0>        -0.0741 
      11 C9        -1.2244   -2.8240   13.0843 C.3       1 <0>        -0.1663 
      12 C10       -2.5529   -3.5106   12.6964 C.3       1 <0>        -0.1657 
      13 C11       -1.1013   -1.4896    7.0426 C.2       1 <0>         0.5920 
      14 O1        -0.4886   -2.0365    6.1407 O.2       1 <0>        -0.5202 
      15 N3        -1.6851   -0.2801    6.8429 N.am      1 <0>        -0.7096 
      16 C12       -1.6378    0.3402    5.5243 C.3       1 <0>         0.1269 
      17 C13       -0.2859    0.1993    4.7630 C.3       1 <0>         0.1209 
      18 C14        0.7257    0.9550    5.6571 C.ar      1 <0>        -0.1261 
      19 C15        0.6883    2.3507    5.7443 C.ar      1 <0>        -0.0471 
      20 C16        1.5982    3.0256    6.5612 C.ar      1 <0>        -0.1526 
      21 C17        2.5449    2.3325    7.3214 C.ar      1 <0>         0.1329 
      22 C18        2.5870    0.9411    7.2253 C.ar      1 <0>        -0.2055 
      23 C19        1.6865    0.2586    6.4005 C.ar      1 <0>        -0.0791 
      24 O2         3.4305    3.0680    8.1330 O.3       1 <0>        -0.3169 
      25 C20        3.0296    4.3026    8.7528 C.3       1 <0>         0.0263 
      26 N4        -0.2174    0.8767    3.4383 N.3       1 <0>        -0.5235 
      27 C21        1.0963    0.6482    2.7682 C.3       1 <0>         0.0085 
      28 C22        1.2001   -0.7884    2.1965 C.3       1 <0>         0.0643 
      29 O3         0.1106   -1.0232    1.2894 O.3       1 <0>        -0.3844 
      30 C23       -1.1646   -0.8758    1.9279 C.3       1 <0>         0.0641 
      31 C24       -1.3217    0.5555    2.5029 C.3       1 <0>         0.0200 
      32 H1         1.8637   -4.0757    9.3722 H         1 <0>         0.0684 
      33 H2         1.9367   -3.1118    7.8584 H         1 <0>         0.0673 
      34 H3         2.1930   -4.8826    7.8071 H         1 <0>         0.0762 
      35 H4        -0.0126   -3.4031    6.0595 H         1 <0>         0.0772 
      36 H5         0.3001   -5.1719    6.0681 H         1 <0>         0.1076 
      37 H6        -1.3329   -4.5266    6.3813 H         1 <0>         0.0533 
      38 H7        -1.3836   -5.8682    8.5292 H         1 <0>         0.0541 
      39 H8        -0.0836   -5.7118    9.7556 H         1 <0>         0.1047 
      40 H9         0.2553   -6.4907    8.1781 H         1 <0>         0.0783 
      41 H10       -2.2837   -0.5611    9.3922 H         1 <0>         0.1546 
      42 H11       -2.6550   -1.3177   12.2215 H         1 <0>         0.1185 
      43 H12       -0.2981   -3.3408   12.7838 H         1 <0>         0.0960 
      44 H13       -1.2008   -2.2606   14.0325 H         1 <0>         0.1015 
      45 H14       -2.4761   -4.4633   12.1468 H         1 <0>         0.1002 
      46 H15       -3.4007   -3.3982   13.3931 H         1 <0>         0.0943 
      47 H16       -2.1417    0.1810    7.6017 H         1 <0>         0.4026 
      48 H17       -1.8439    1.4207    5.6347 H         1 <0>         0.0820 
      49 H18       -2.4140   -0.1073    4.8784 H         1 <0>         0.0826 
      50 H19       -0.0385   -0.8738    4.6676 H         1 <0>         0.0584 
      51 H20       -0.0447    2.9187    5.1787 H         1 <0>         0.1381 
      52 H21        1.5697    4.1095    6.6266 H         1 <0>         0.1314 
      53 H22        3.3105    0.3557    7.7815 H         1 <0>         0.1295 
      54 H23        1.7366   -0.8247    6.3370 H         1 <0>         0.1215 
      55 H24        2.1808    4.1101    9.4283 H         1 <0>         0.0567 
      56 H25        3.8629    4.7172    9.3444 H         1 <0>         0.0562 
      57 H26        2.7086    5.0261    7.9845 H         1 <0>         0.1014 
      58 H27        1.9317    0.7821    3.4792 H         1 <0>         0.0471 
      59 H28        1.2723    1.3395    1.9262 H         1 <0>         0.0943 
      60 H29        2.1687   -0.9197    1.6808 H         1 <0>         0.0999 
      61 H30        1.1379   -1.5387    3.0042 H         1 <0>         0.0621 
      62 H31       -1.9840   -1.0916    1.2183 H         1 <0>         0.0991 
      63 H32       -1.2205   -1.6160    2.7454 H         1 <0>         0.0615 
      64 H33       -2.2919    0.6156    3.0267 H         1 <0>         0.0908 
      65 H34       -1.3337    1.2663    1.6568 H         1 <0>         0.0448 
@<TRIPOS>BOND
       1        1        2 1        
       2        1       32 1        
       3        1       33 1        
       4        1       34 1        
       5        2        3 1        
       6        2        4 1        
       7        2        5 1        
       8        3       35 1        
       9        3       36 1        
      10        3       37 1        
      11        4       38 1        
      12        4       39 1        
      13        4       40 1        
      14        5        9 1        
      15        5        6 1        
      16        6        7 2        
      17        6       13 1        
      18        7        8 1        
      19        7       41 1        
      20        8        9 2        
      21        8       10 1        
      22       10       12 1        
      23       10       11 1        
      24       10       42 1        
      25       11       12 1        
      26       11       43 1        
      27       11       44 1        
      28       12       45 1        
      29       12       46 1        
      30       13       14 2        
      31       13       15 am       
      32       15       16 1        
      33       15       47 1        
      34       16       17 1        
      35       16       48 1        
      36       16       49 1        
      37       17       18 1        
      38       17       26 1        
      39       17       50 1        
      40       18       23 ar       
      41       18       19 ar       
      42       19       20 ar       
      43       19       51 1        
      44       20       21 ar       
      45       20       52 1        
      46       21       22 ar       
      47       21       24 1        
      48       22       23 ar       
      49       22       53 1        
      50       23       54 1        
      51       24       25 1        
      52       25       55 1        
      53       25       56 1        
      54       25       57 1        
      55       26       31 1        
      56       26       27 1        
      57       27       28 1        
      58       27       58 1        
      59       27       59 1        
      60       28       29 1        
      61       28       60 1        
      62       28       61 1        
      63       29       30 1        
      64       30       31 1        
      65       30       62 1        
      66       30       63 1        
      67       31       64 1        
      68       31       65 1        

