#        1GCZ_R01_S0001_C0000_L00008_S0001_C0025_G0010_E0001.mol2
#        Tue Jun  6 09:57:28 2017
#        Descriptor:     32    10    31     7     7    15
#        Energy - RMSD - RMSD MassCentre:     -71.1304    999.9999    999.9999
#        Receptor:       1  Surface Point:     1  Conformer:     0
#        Ligand:         8  Surface Point:     1  Conformer:    25
#        BUDE Formal Charge: 0
#        ATOM Count: 65
#        Heavy ATOM Count: 31
@<TRIPOS>MOLECULE
ZINC61400536_1GCZ_R01_S0001_C0000_L00008_S0001_C0025_G0010_E0001
 65 68 0 0 0
SMALL
USER_CHARGES
@<TRIPOS>ATOM
       1 C1         0.6783   -4.1886    8.3720 C.3       1 <0>        -0.1457 
       2 C2        -0.8248   -4.4041    8.0234 C.3       1 <0>         0.1768 
       3 C3        -1.0594   -4.4144    6.4740 C.3       1 <0>        -0.1798 
       4 C4        -1.2639   -5.8199    8.5329 C.3       1 <0>        -0.1802 
       5 N1        -1.6142   -3.3949    8.7390 N.pl3     1 <0>        -0.2386 
       6 C5        -2.1017   -2.2612    8.3018 C.2       1 <0>        -0.0401 
       7 C6        -2.8141   -1.6975    9.2866 C.2       1 <0>        -0.1820 
       8 C7        -2.7405   -2.6147   10.4091 C.2       1 <0>         0.0520 
       9 N2        -2.0308   -3.5815   10.0092 N.2       1 <0>        -0.2594 
      10 C8        -3.3481   -2.5088   11.7813 C.3       1 <0>        -0.0741 
      11 C9        -4.5583   -3.4199   12.0950 C.3       1 <0>        -0.1663 
      12 C10       -4.7687   -1.9043   11.8816 C.3       1 <0>        -0.1657 
      13 C11       -1.9622   -1.5730    6.9995 C.2       1 <0>         0.5920 
      14 O1        -1.2733   -2.0812    6.1306 O.2       1 <0>        -0.5202 
      15 N3        -2.5389   -0.3603    6.7986 N.am      1 <0>        -0.7096 
      16 C12       -2.3903    0.3103    5.5125 C.3       1 <0>         0.1269 
      17 C13       -0.9797    0.2067    4.8592 C.3       1 <0>         0.1209 
      18 C14       -0.0510    0.9338    5.8606 C.ar      1 <0>        -0.1261 
      19 C15       -0.1082    2.3249    5.9969 C.ar      1 <0>        -0.0471 
      20 C16        0.7261    2.9736    6.9101 C.ar      1 <0>        -0.1526 
      21 C17        1.6143    2.2575    7.7184 C.ar      1 <0>         0.1329 
      22 C18        1.6768    0.8712    7.5737 C.ar      1 <0>        -0.2055 
      23 C19        0.8525    0.2153    6.6531 C.ar      1 <0>        -0.0791 
      24 O2         2.4243    2.9668    8.6265 O.3       1 <0>        -0.3169 
      25 C20        1.9630    4.1744    9.2576 C.3       1 <0>         0.0263 
      26 N4        -0.8100    0.9348    3.5709 N.3       1 <0>        -0.5235 
      27 C21        0.5558    0.7400    3.0021 C.3       1 <0>         0.0085 
      28 C22        0.7188   -0.6731    2.3871 C.3       1 <0>         0.0643 
      29 O3        -0.2912   -0.8795    1.3860 O.3       1 <0>        -0.3844 
      30 C23       -1.6154   -0.7644    1.9234 C.3       1 <0>         0.0641 
      31 C24       -1.8318    0.6429    2.5372 C.3       1 <0>         0.0200 
      32 H1         0.8273   -4.2284    9.4641 H         1 <0>         0.0684 
      33 H2         1.0142   -3.2068    7.9986 H         1 <0>         0.0673 
      34 H3         1.2899   -4.9728    7.9019 H         1 <0>         0.0762 
      35 H4        -0.7798   -3.4409    6.0371 H         1 <0>         0.0772 
      36 H5        -0.4527   -5.2068    6.0047 H         1 <0>         0.1076 
      37 H6        -2.1115   -4.5838    6.2077 H         1 <0>         0.0533 
      38 H7        -2.3243   -6.0069    8.2923 H         1 <0>         0.0541 
      39 H8        -1.1297   -5.8897    9.6256 H         1 <0>         0.1047 
      40 H9        -0.6567   -6.6056    8.0528 H         1 <0>         0.0783 
      41 H10       -3.3400   -0.7422    9.2782 H         1 <0>         0.1546 
      42 H11       -2.6902   -2.2914   12.6403 H         1 <0>         0.1185 
      43 H12       -4.9092   -4.0832   11.2873 H         1 <0>         0.0960 
      44 H13       -4.6298   -3.8031   13.1270 H         1 <0>         0.1015 
      45 H14       -5.2509   -1.5991   10.9382 H         1 <0>         0.1002 
      46 H15       -4.9803   -1.2939   12.7757 H         1 <0>         0.0943 
      47 H16       -3.0598    0.0686    7.5345 H         1 <0>         0.4026 
      48 H17       -2.6145    1.3845    5.6463 H         1 <0>         0.0820 
      49 H18       -3.1073   -0.1169    4.7891 H         1 <0>         0.0826 
      50 H19       -0.7156   -0.8604    4.7440 H         1 <0>         0.0584 
      51 H20       -0.7980    2.9097    5.3953 H         1 <0>         0.1381 
      52 H21        0.6825    4.0540    7.0137 H         1 <0>         0.1314 
      53 H22        2.3580    0.2693    8.1646 H         1 <0>         0.1295 
      54 H23        0.9175   -0.8645    6.5532 H         1 <0>         0.1215 
      55 H24        1.0640    3.9510    9.8539 H         1 <0>         0.0567 
      56 H25        2.7417    4.5711    9.9304 H         1 <0>         0.0562 
      57 H26        1.6989    4.9248    8.4935 H         1 <0>         0.1014 
      58 H27        1.3294    0.8517    3.7833 H         1 <0>         0.0471 
      59 H28        0.7933    1.4641    2.2038 H         1 <0>         0.0943 
      60 H29        1.7272   -0.7786    1.9475 H         1 <0>         0.0999 
      61 H30        0.5980   -1.4540    3.1582 H         1 <0>         0.0621 
      62 H31       -2.3724   -0.9578    1.1418 H         1 <0>         0.0991 
      63 H32       -1.7307   -1.5356    2.7052 H         1 <0>         0.0615 
      64 H33       -2.8418    0.6771    2.9821 H         1 <0>         0.0908 
      65 H34       -1.7814    1.3855    1.7203 H         1 <0>         0.0448 
@<TRIPOS>BOND
       1        1        2 1        
       2        1       32 1        
       3        1       33 1        
       4        1       34 1        
       5        2        3 1        
       6        2        4 1        
       7        2        5 1        
       8        3       35 1        
       9        3       36 1        
      10        3       37 1        
      11        4       38 1        
      12        4       39 1        
      13        4       40 1        
      14        5        9 1        
      15        5        6 1        
      16        6        7 2        
      17        6       13 1        
      18        7        8 1        
      19        7       41 1        
      20        8        9 2        
      21        8       10 1        
      22       10       12 1        
      23       10       11 1        
      24       10       42 1        
      25       11       12 1        
      26       11       43 1        
      27       11       44 1        
      28       12       45 1        
      29       12       46 1        
      30       13       14 2        
      31       13       15 am       
      32       15       16 1        
      33       15       47 1        
      34       16       17 1        
      35       16       48 1        
      36       16       49 1        
      37       17       18 1        
      38       17       26 1        
      39       17       50 1        
      40       18       23 ar       
      41       18       19 ar       
      42       19       20 ar       
      43       19       51 1        
      44       20       21 ar       
      45       20       52 1        
      46       21       22 ar       
      47       21       24 1        
      48       22       23 ar       
      49       22       53 1        
      50       23       54 1        
      51       24       25 1        
      52       25       55 1        
      53       25       56 1        
      54       25       57 1        
      55       26       31 1        
      56       26       27 1        
      57       27       28 1        
      58       27       58 1        
      59       27       59 1        
      60       28       29 1        
      61       28       60 1        
      62       28       61 1        
      63       29       30 1        
      64       30       31 1        
      65       30       62 1        
      66       30       63 1        
      67       31       64 1        
      68       31       65 1        

