#        1GCZ_R01_S0001_C0000_L00008_S0001_C0025_G0010_E0001.mol2
#        Tue Jun  6 14:10:20 2017
#        Descriptor:      5    10    21     8     7    15
#        Energy - RMSD - RMSD MassCentre:     -69.1717    999.9999    999.9999
#        Receptor:       1  Surface Point:     1  Conformer:     0
#        Ligand:         8  Surface Point:     1  Conformer:    25
#        BUDE Formal Charge: 0
#        ATOM Count: 65
#        Heavy ATOM Count: 31
@<TRIPOS>MOLECULE
ZINC61400536_1GCZ_R01_S0001_C0000_L00008_S0001_C0025_G0010_E0001
 65 68 0 0 0
SMALL
USER_CHARGES
@<TRIPOS>ATOM
       1 C1         1.3128   -4.5215    7.8611 C.3       1 <0>        -0.1457 
       2 C2        -0.2428   -4.4389    7.8840 C.3       1 <0>         0.1768 
       3 C3        -0.8324   -4.3060    6.4381 C.3       1 <0>        -0.1798 
       4 C4        -0.8121   -5.7820    8.4574 C.3       1 <0>        -0.1802 
       5 N1        -0.6343   -3.3522    8.7894 N.pl3     1 <0>        -0.2386 
       6 C5        -0.9851   -2.1232    8.5057 C.2       1 <0>        -0.0401 
       7 C6        -1.3250   -1.5050    9.6449 C.2       1 <0>        -0.1820 
       8 C7        -1.1663   -2.4913   10.6979 C.2       1 <0>         0.0520 
       9 N2        -0.7686   -3.5424   10.1188 N.2       1 <0>        -0.2594 
      10 C8        -1.4029   -2.3666   12.1784 C.3       1 <0>        -0.0741 
      11 C9        -2.6566   -3.0624   12.7590 C.3       1 <0>        -0.1663 
      12 C10       -2.6177   -1.5232   12.6325 C.3       1 <0>        -0.1657 
      13 C11       -1.0266   -1.3884    7.2222 C.2       1 <0>         0.5920 
      14 O1        -0.6712   -1.9553    6.2023 O.2       1 <0>        -0.5202 
      15 N3        -1.3918   -0.0810    7.1909 N.am      1 <0>        -0.7096 
      16 C12       -1.4242    0.6337    5.9205 C.3       1 <0>         0.1269 
      17 C13       -0.2531    0.3195    4.9422 C.3       1 <0>         0.1209 
      18 C14        1.0061    0.8002    5.7019 C.ar      1 <0>        -0.1261 
      19 C15        1.2494    2.1670    5.8749 C.ar      1 <0>        -0.0471 
      20 C16        2.3830    2.5935    6.5705 C.ar      1 <0>        -0.1526 
      21 C17        3.2825    1.6779    7.1247 C.ar      1 <0>         0.1329 
      22 C18        3.0433    0.3154    6.9423 C.ar      1 <0>        -0.2055 
      23 C19        1.9162   -0.1195    6.2371 C.ar      1 <0>        -0.0791 
      24 O2         4.4034    2.1687    7.8225 O.3       1 <0>        -0.3169 
      25 C20        4.3427    3.3962    8.5700 C.3       1 <0>         0.0263 
      26 N4        -0.2549    1.0869    3.6657 N.3       1 <0>        -0.5235 
      27 C21        0.8759    0.6858    2.7784 C.3       1 <0>         0.0085 
      28 C22        0.6169   -0.6905    2.1149 C.3       1 <0>         0.0643 
      29 O3        -0.6203   -0.6456    1.3854 O.3       1 <0>        -0.3844 
      30 C23       -1.7341   -0.3282    2.2306 C.3       1 <0>         0.0641 
      31 C24       -1.5273    1.0522    2.9057 C.3       1 <0>         0.0200 
      32 H1         1.7037   -4.6584    8.8833 H         1 <0>         0.0684 
      33 H2         1.7327   -3.5945    7.4364 H         1 <0>         0.0673 
      34 H3         1.6355   -5.3712    7.2413 H         1 <0>         0.0762 
      35 H4        -0.4826   -3.3728    5.9654 H         1 <0>         0.0772 
      36 H5        -0.5158   -5.1629    5.8202 H         1 <0>         0.1076 
      37 H6        -1.9300   -4.2649    6.4322 H         1 <0>         0.0533 
      38 H7        -1.9149   -5.7583    8.4781 H         1 <0>         0.0541 
      39 H8        -0.4408   -5.9456    9.4832 H         1 <0>         0.1047 
      40 H9        -0.4963   -6.6316    7.8290 H         1 <0>         0.0783 
      41 H10       -1.6457   -0.4720    9.7830 H         1 <0>         0.1546 
      42 H11       -0.5325   -2.3279   12.8558 H         1 <0>         0.1185 
      43 H12       -3.3075   -3.5976   12.0480 H         1 <0>         0.0960 
      44 H13       -2.5555   -3.4926   13.7698 H         1 <0>         0.1015 
      45 H14       -3.2406   -1.0753   11.8406 H         1 <0>         0.1002 
      46 H15       -2.4927   -0.9439   13.5628 H         1 <0>         0.0943 
      47 H16       -1.6334    0.3863    8.0395 H         1 <0>         0.4026 
      48 H17       -1.4012    1.7197    6.1256 H         1 <0>         0.0820 
      49 H18       -2.3590    0.3909    5.3849 H         1 <0>         0.0826 
      50 H19       -0.2323   -0.7680    4.7456 H         1 <0>         0.0584 
      51 H20        0.5624    2.9045    5.4704 H         1 <0>         0.1381 
      52 H21        2.5722    3.6550    6.7025 H         1 <0>         0.1314 
      53 H22        3.7164   -0.4367    7.3382 H         1 <0>         0.1295 
      54 H23        1.7484   -1.1845    6.1035 H         1 <0>         0.1215 
      55 H24        3.5833    3.3008    9.3624 H         1 <0>         0.0567 
      56 H25        5.3187    3.6012    9.0410 H         1 <0>         0.0562 
      57 H26        4.0548    4.2300    7.9076 H         1 <0>         0.1014 
      58 H27        1.8181    0.6050    3.3503 H         1 <0>         0.0471 
      59 H28        1.0530    1.4053    1.9605 H         1 <0>         0.0943 
      60 H29        1.4545   -0.9478    1.4416 H         1 <0>         0.0999 
      61 H30        0.5338   -1.4851    2.8770 H         1 <0>         0.0621 
      62 H31       -2.6762   -0.3305    1.6527 H         1 <0>         0.0991 
      63 H32       -1.8077   -1.1150    3.0019 H         1 <0>         0.0615 
      64 H33       -2.3789    1.2394    3.5832 H         1 <0>         0.0908 
      65 H34       -1.5294    1.8249    2.1156 H         1 <0>         0.0448 
@<TRIPOS>BOND
       1        1        2 1        
       2        1       32 1        
       3        1       33 1        
       4        1       34 1        
       5        2        3 1        
       6        2        4 1        
       7        2        5 1        
       8        3       35 1        
       9        3       36 1        
      10        3       37 1        
      11        4       38 1        
      12        4       39 1        
      13        4       40 1        
      14        5        9 1        
      15        5        6 1        
      16        6        7 2        
      17        6       13 1        
      18        7        8 1        
      19        7       41 1        
      20        8        9 2        
      21        8       10 1        
      22       10       12 1        
      23       10       11 1        
      24       10       42 1        
      25       11       12 1        
      26       11       43 1        
      27       11       44 1        
      28       12       45 1        
      29       12       46 1        
      30       13       14 2        
      31       13       15 am       
      32       15       16 1        
      33       15       47 1        
      34       16       17 1        
      35       16       48 1        
      36       16       49 1        
      37       17       18 1        
      38       17       26 1        
      39       17       50 1        
      40       18       23 ar       
      41       18       19 ar       
      42       19       20 ar       
      43       19       51 1        
      44       20       21 ar       
      45       20       52 1        
      46       21       22 ar       
      47       21       24 1        
      48       22       23 ar       
      49       22       53 1        
      50       23       54 1        
      51       24       25 1        
      52       25       55 1        
      53       25       56 1        
      54       25       57 1        
      55       26       31 1        
      56       26       27 1        
      57       27       28 1        
      58       27       58 1        
      59       27       59 1        
      60       28       29 1        
      61       28       60 1        
      62       28       61 1        
      63       29       30 1        
      64       30       31 1        
      65       30       62 1        
      66       30       63 1        
      67       31       64 1        
      68       31       65 1        

