#        1GCZ_R01_S0001_C0000_L00003_S0001_C0009_G0010_E0001.mol2
#        Tue Jun  6 09:54:43 2017
#        Descriptor:      2    34    22     7     6    15
#        Energy - RMSD - RMSD MassCentre:     -57.3846    999.9999    999.9999
#        Receptor:       1  Surface Point:     1  Conformer:     0
#        Ligand:         3  Surface Point:     1  Conformer:     9
#        BUDE Formal Charge: 0
#        ATOM Count: 58
#        Heavy ATOM Count: 30
@<TRIPOS>MOLECULE
ZINC61580633_1GCZ_R01_S0001_C0000_L00003_S0001_C0009_G0010_E0001
 58 59 0 0 0
SMALL
USER_CHARGES
@<TRIPOS>ATOM
       1 C1        -4.4775   -2.4415   13.8006 C.3       1 <0>        -0.1532 
       2 C2        -3.4138   -3.5133   13.5809 C.3       1 <0>        -0.1224 
       3 C3        -3.0791   -3.5999   12.0925 C.3       1 <0>        -0.1198 
       4 C4        -2.0139   -4.6732   11.8726 C.3       1 <0>         0.0610 
       5 O1        -1.7007   -4.7543   10.4797 O.3       1 <0>        -0.3878 
       6 C5        -0.7056   -5.7460   10.2122 C.3       1 <0>         0.0487 
       7 C6        -0.4158   -5.7838    8.7126 C.3       1 <0>         0.1244 
       8 N1         0.3346   -4.5794    8.3289 N.am      1 <0>        -0.7216 
       9 C7         0.6982   -4.3984    7.0623 C.2       1 <0>         0.5161 
      10 O2         0.4068   -5.2377    6.2120 O.2       1 <0>        -0.5151 
      11 C8         1.4690   -3.1611    6.6682 C.3       1 <0>         0.0490 
      12 O3         0.6146   -2.0183    6.7614 O.3       1 <0>        -0.3194 
      13 C9         0.1242   -1.6916    7.9760 C.2       1 <0>         0.5417 
      14 O4         0.4130   -2.3639    8.9523 O.2       1 <0>        -0.5337 
      15 C10       -0.7645   -0.5175    8.1232 C.2       1 <0>        -0.2559 
      16 C11       -1.3666   -0.0796    9.4023 C.2       1 <0>        -0.0791 
      17 C12       -2.1391    0.9996    9.2578 C.2       1 <0>        -0.2585 
      18 S1        -2.2000    1.5765    7.5858 S.3       1 <0>         0.3028 
      19 C13       -1.1211    0.2626    7.0937 C.2       1 <0>         0.0893 
      20 N2        -0.6855    0.0287    5.8161 N.am      1 <0>        -0.6099 
      21 C14       -1.0663    0.8304    4.8255 C.2       1 <0>         0.5551 
      22 O5        -1.8098    1.7825    5.0566 O.2       1 <0>        -0.4939 
      23 C15       -0.5947    0.5763    3.4458 C.ar      1 <0>        -0.1466 
      24 C16       -1.0225    1.4433    2.4332 C.ar      1 <0>        -0.0772 
      25 C17       -0.6703    1.2121    1.0982 C.ar      1 <0>        -0.1241 
      26 C18        0.1087    0.1026    0.7495 C.ar      1 <0>        -0.0446 
      27 C19        0.5820   -0.7360    1.7658 C.ar      1 <0>        -0.1261 
      28 C20        0.2517   -0.4847    3.1028 C.ar      1 <0>        -0.0460 
      29 C21        0.4259   -0.1639   -0.7027 C.3       1 <0>        -0.0928 
      30 C22       -0.6547   -1.0589   -1.3024 C.3       1 <0>        -0.1485 
      31 H1        -5.3785   -2.7078   13.2519 H         1 <0>         0.0567 
      32 H2        -4.1051   -1.4835   13.4443 H         1 <0>         0.0554 
      33 H3        -4.7061   -2.3705   14.8619 H         1 <0>         0.0557 
      34 H4        -2.5165   -3.2544   14.1393 H         1 <0>         0.0632 
      35 H5        -3.7904   -4.4747   13.9239 H         1 <0>         0.0635 
      36 H6        -3.9753   -3.8594   11.5332 H         1 <0>         0.0711 
      37 H7        -2.7015   -2.6393   11.7487 H         1 <0>         0.0704 
      38 H8        -1.1166   -4.4144   12.4309 H         1 <0>         0.0498 
      39 H9        -2.3906   -5.6346   12.2155 H         1 <0>         0.0505 
      40 H10       -1.0669   -6.7198   10.5359 H         1 <0>         0.0584 
      41 H11        0.2069   -5.4996   10.7512 H         1 <0>         0.0702 
      42 H12       -1.3535   -5.8167    8.1621 H         1 <0>         0.0872 
      43 H13        0.1740   -6.6676    8.4788 H         1 <0>         0.0805 
      44 H14        0.5745   -3.8895    9.0263 H         1 <0>         0.4058 
      45 H15        2.3180   -3.0338    7.3365 H         1 <0>         0.1008 
      46 H16        1.8243   -3.2650    5.6452 H         1 <0>         0.0999 
      47 H17       -1.1784   -0.5846   10.3382 H         1 <0>         0.1557 
      48 H18       -2.6535    1.4661   10.0849 H         1 <0>         0.1929 
      49 H19       -0.0749   -0.7531    5.6262 H         1 <0>         0.4317 
      50 H20       -1.6346    2.2978    2.6814 H         1 <0>         0.1287 
      51 H21       -1.0009    1.8912    0.3264 H         1 <0>         0.1326 
      52 H22        1.2082   -1.5761    1.5041 H         1 <0>         0.1342 
      53 H23        0.6937   -1.1299    3.8476 H         1 <0>         0.1410 
      54 H24        1.3913   -0.6600   -0.7772 H         1 <0>         0.0777 
      55 H25        0.4591    0.7789   -1.2449 H         1 <0>         0.0771 
      56 H26       -1.6176   -0.5565   -1.2386 H         1 <0>         0.0623 
      57 H27       -0.6965   -1.9956   -0.7504 H         1 <0>         0.0572 
      58 H28       -0.4191   -1.2618   -2.3450 H         1 <0>         0.0578 
@<TRIPOS>BOND
       1        1        2 1        
       2        1       31 1        
       3        1       32 1        
       4        1       33 1        
       5        2        3 1        
       6        2       34 1        
       7        2       35 1        
       8        3        4 1        
       9        3       36 1        
      10        3       37 1        
      11        4        5 1        
      12        4       38 1        
      13        4       39 1        
      14        5        6 1        
      15        6        7 1        
      16        6       40 1        
      17        6       41 1        
      18        7        8 1        
      19        7       42 1        
      20        7       43 1        
      21        8        9 am       
      22        8       44 1        
      23        9       10 2        
      24        9       11 1        
      25       11       12 1        
      26       11       45 1        
      27       11       46 1        
      28       12       13 1        
      29       13       14 2        
      30       13       15 1        
      31       15       19 2        
      32       15       16 1        
      33       16       17 2        
      34       16       47 1        
      35       17       18 1        
      36       17       48 1        
      37       18       19 1        
      38       19       20 1        
      39       20       21 am       
      40       20       49 1        
      41       21       22 2        
      42       21       23 1        
      43       23       28 ar       
      44       23       24 ar       
      45       24       25 ar       
      46       24       50 1        
      47       25       26 ar       
      48       25       51 1        
      49       26       27 ar       
      50       26       29 1        
      51       27       28 ar       
      52       27       52 1        
      53       28       53 1        
      54       29       30 1        
      55       29       54 1        
      56       29       55 1        
      57       30       56 1        
      58       30       57 1        
      59       30       58 1        

