#        1GCZ_R01_S0001_C0000_L00008_S0001_C0026_G0010_E0001.mol2
#        Tue Jun  6 09:57:29 2017
#        Descriptor:     12     8    15     7     7    15
#        Energy - RMSD - RMSD MassCentre:     -70.2961    999.9999    999.9999
#        Receptor:       1  Surface Point:     1  Conformer:     0
#        Ligand:         8  Surface Point:     1  Conformer:    26
#        BUDE Formal Charge: 0
#        ATOM Count: 65
#        Heavy ATOM Count: 31
@<TRIPOS>MOLECULE
ZINC61400536_1GCZ_R01_S0001_C0000_L00008_S0001_C0026_G0010_E0001
 65 68 0 0 0
SMALL
USER_CHARGES
@<TRIPOS>ATOM
       1 C1         0.5180   -4.3660    8.3298 C.3       1 <0>        -0.1457 
       2 C2        -0.9692   -4.5717    7.9135 C.3       1 <0>         0.1768 
       3 C3        -1.1438   -4.5112    6.3573 C.3       1 <0>        -0.1798 
       4 C4        -1.4191   -6.0114    8.3397 C.3       1 <0>        -0.1802 
       5 N1        -1.7919   -3.6001    8.6436 N.pl3     1 <0>        -0.2386 
       6 C5        -2.2690   -2.4495    8.2405 C.2       1 <0>        -0.0401 
       7 C6        -3.0223   -1.9349    9.2218 C.2       1 <0>        -0.1820 
       8 C7        -2.9865   -2.9028   10.3028 C.2       1 <0>         0.0520 
       9 N2        -2.2561   -3.8470    9.8866 N.2       1 <0>        -0.2594 
      10 C8        -3.6474   -2.8631   11.6538 C.3       1 <0>        -0.0741 
      11 C9        -5.0142   -2.1457   11.7558 C.3       1 <0>        -0.1663 
      12 C10       -3.7505   -1.4859   12.3512 C.3       1 <0>        -0.1657 
      13 C11       -2.0835   -1.7011    6.9777 C.2       1 <0>         0.5920 
      14 O1        -1.3584   -2.1656    6.1137 O.2       1 <0>        -0.5202 
      15 N3        -2.6593   -0.4829    6.8106 N.am      1 <0>        -0.7096 
      16 C12       -2.4653    0.2472    5.5635 C.3       1 <0>         0.1269 
      17 C13       -1.0299    0.1800    4.9615 C.3       1 <0>         0.1209 
      18 C14       -0.1450    0.8639    6.0306 C.ar      1 <0>        -0.1261 
      19 C15       -0.2159    2.2470    6.2286 C.ar      1 <0>        -0.0471 
      20 C16        0.5786    2.8562    7.2025 C.ar      1 <0>        -0.1526 
      21 C17        1.4391    2.1074    8.0108 C.ar      1 <0>         0.1329 
      22 C18        1.5156    0.7295    7.8049 C.ar      1 <0>        -0.2055 
      23 C19        0.7315    0.1134    6.8237 C.ar      1 <0>        -0.0791 
      24 O2         2.2091    2.7774    8.9814 O.3       1 <0>        -0.3169 
      25 C20        2.6881    4.1164    8.7651 C.3       1 <0>         0.0263 
      26 N4        -0.8150    0.9676    3.7157 N.3       1 <0>        -0.5235 
      27 C21        0.5729    0.8052    3.1920 C.3       1 <0>         0.0085 
      28 C22        0.7682   -0.5772    2.5193 C.3       1 <0>         0.0643 
      29 O3        -0.2012   -0.7414    1.4713 O.3       1 <0>        -0.3844 
      30 C23       -1.5458   -0.6570    1.9616 C.3       1 <0>         0.0641 
      31 C24       -1.7943    0.7195    2.6307 C.3       1 <0>         0.0200 
      32 H1         0.6248   -4.4557    9.4239 H         1 <0>         0.0684 
      33 H2         0.8620   -3.3666    8.0154 H         1 <0>         0.0673 
      34 H3         1.1520   -5.1250    7.8482 H         1 <0>         0.0762 
      35 H4        -0.8534   -3.5173    5.9770 H         1 <0>         0.0772 
      36 H5        -0.5146   -5.2784    5.8759 H         1 <0>         0.1076 
      37 H6        -2.1838   -4.6727    6.0428 H         1 <0>         0.0533 
      38 H7        -2.4683   -6.1916    8.0498 H         1 <0>         0.0541 
      39 H8        -1.3268   -6.1310    9.4325 H         1 <0>         0.1047 
      40 H9        -0.7890   -6.7714    7.8479 H         1 <0>         0.0783 
      41 H10       -3.5533   -0.9826    9.2370 H         1 <0>         0.1546 
      42 H11       -3.5158   -3.7198   12.3370 H         1 <0>         0.1185 
      43 H12       -5.4145   -1.6962   10.8322 H         1 <0>         0.0960 
      44 H13       -5.7436   -2.5773   12.4620 H         1 <0>         0.1015 
      45 H14       -3.3422   -0.6177   11.8079 H         1 <0>         0.1002 
      46 H15       -3.6529   -1.4837   13.4499 H         1 <0>         0.0943 
      47 H16       -3.2109   -0.0907    7.5446 H         1 <0>         0.4026 
      48 H17       -2.7010    1.3130    5.7379 H         1 <0>         0.0820 
      49 H18       -3.1511   -0.1492    4.7939 H         1 <0>         0.0826 
      50 H19       -0.7551   -0.8795    4.8076 H         1 <0>         0.0584 
      51 H20       -0.8855    2.8560    5.6282 H         1 <0>         0.1381 
      52 H21        0.5244    3.9305    7.3539 H         1 <0>         0.1314 
      53 H22        2.1772    0.1039    8.3934 H         1 <0>         0.1295 
      54 H23        0.8069   -0.9603    6.6768 H         1 <0>         0.1215 
      55 H24        1.8282    4.7909    8.6261 H         1 <0>         0.0567 
      56 H25        3.2652    4.4580    9.6407 H         1 <0>         0.0562 
      57 H26        3.3128    4.1538    7.8568 H         1 <0>         0.1014 
      58 H27        1.3151    0.8840    4.0070 H         1 <0>         0.0471 
      59 H28        0.8366    1.5665    2.4378 H         1 <0>         0.0943 
      60 H29        1.7934   -0.6579    2.1149 H         1 <0>         0.0999 
      61 H30        0.6225   -1.3935    3.2484 H         1 <0>         0.0621 
      62 H31       -2.2709   -0.8173    1.1430 H         1 <0>         0.0991 
      63 H32       -1.6865   -1.4640    2.7020 H         1 <0>         0.0615 
      64 H33       -2.8210    0.7287    3.0371 H         1 <0>         0.0908 
      65 H34       -1.7170    1.4993    1.8515 H         1 <0>         0.0448 
@<TRIPOS>BOND
       1        1        2 1        
       2        1       32 1        
       3        1       33 1        
       4        1       34 1        
       5        2        3 1        
       6        2        4 1        
       7        2        5 1        
       8        3       35 1        
       9        3       36 1        
      10        3       37 1        
      11        4       38 1        
      12        4       39 1        
      13        4       40 1        
      14        5        9 1        
      15        5        6 1        
      16        6        7 2        
      17        6       13 1        
      18        7        8 1        
      19        7       41 1        
      20        8        9 2        
      21        8       10 1        
      22       10       12 1        
      23       10       11 1        
      24       10       42 1        
      25       11       12 1        
      26       11       43 1        
      27       11       44 1        
      28       12       45 1        
      29       12       46 1        
      30       13       14 2        
      31       13       15 am       
      32       15       16 1        
      33       15       47 1        
      34       16       17 1        
      35       16       48 1        
      36       16       49 1        
      37       17       18 1        
      38       17       26 1        
      39       17       50 1        
      40       18       23 ar       
      41       18       19 ar       
      42       19       20 ar       
      43       19       51 1        
      44       20       21 ar       
      45       20       52 1        
      46       21       22 ar       
      47       21       24 1        
      48       22       23 ar       
      49       22       53 1        
      50       23       54 1        
      51       24       25 1        
      52       25       55 1        
      53       25       56 1        
      54       25       57 1        
      55       26       31 1        
      56       26       27 1        
      57       27       28 1        
      58       27       58 1        
      59       27       59 1        
      60       28       29 1        
      61       28       60 1        
      62       28       61 1        
      63       29       30 1        
      64       30       31 1        
      65       30       62 1        
      66       30       63 1        
      67       31       64 1        
      68       31       65 1        

