#        1GCZ_R01_S0001_C0000_L00008_S0001_C0026_G0010_E0001.mol2
#        Tue Jun  6 14:10:22 2017
#        Descriptor:      4    10    23     8     7    15
#        Energy - RMSD - RMSD MassCentre:     -68.5000    999.9999    999.9999
#        Receptor:       1  Surface Point:     1  Conformer:     0
#        Ligand:         8  Surface Point:     1  Conformer:    26
#        BUDE Formal Charge: 0
#        ATOM Count: 65
#        Heavy ATOM Count: 31
@<TRIPOS>MOLECULE
ZINC61400536_1GCZ_R01_S0001_C0000_L00008_S0001_C0026_G0010_E0001
 65 68 0 0 0
SMALL
USER_CHARGES
@<TRIPOS>ATOM
       1 C1         1.7819   -4.3355    8.0498 C.3       1 <0>        -0.1457 
       2 C2         0.2359   -4.5280    8.0437 C.3       1 <0>         0.1768 
       3 C3        -0.3368   -4.5322    6.5849 C.3       1 <0>        -0.1798 
       4 C4        -0.1003   -5.9380    8.6403 C.3       1 <0>        -0.1802 
       5 N1        -0.3601   -3.5084    8.9150 N.pl3     1 <0>        -0.2386 
       6 C5        -0.9155   -2.3669    8.5948 C.2       1 <0>        -0.0401 
       7 C6        -1.3832   -1.7942    9.7122 C.2       1 <0>        -0.1820 
       8 C7        -1.0760   -2.7143   10.7920 C.2       1 <0>         0.0520 
       9 N2        -0.4873   -3.6909   10.2462 N.2       1 <0>        -0.2594 
      10 C8        -1.3625   -2.6017   12.2646 C.3       1 <0>        -0.0741 
      11 C9        -2.6495   -1.8521   12.6831 C.3       1 <0>        -0.1663 
      12 C10       -1.2687   -1.1934   12.8982 C.3       1 <0>        -0.1657 
      13 C11       -1.0581   -1.6786    7.2929 C.2       1 <0>         0.5920 
      14 O1        -0.5868   -2.1956    6.2937 O.2       1 <0>        -0.5202 
      15 N3        -1.6469   -0.4571    7.2229 N.am      1 <0>        -0.7096 
      16 C12       -1.7774    0.2133    5.9348 C.3       1 <0>         0.1269 
      17 C13       -0.5486    0.0899    4.9850 C.3       1 <0>         0.1209 
      18 C14        0.5898    0.8014    5.7542 C.ar      1 <0>        -0.1261 
      19 C15        0.5850    2.1930    5.8975 C.ar      1 <0>        -0.0471 
      20 C16        1.6107    2.8276    6.6018 C.ar      1 <0>        -0.1526 
      21 C17        2.6452    2.0971    7.1941 C.ar      1 <0>         0.1329 
      22 C18        2.6535    0.7102    7.0415 C.ar      1 <0>        -0.2055 
      23 C19        1.6358    0.0682    6.3278 C.ar      1 <0>        -0.0791 
      24 O2         3.6470    2.7928    7.8988 O.3       1 <0>        -0.3169 
      25 C20        4.0650    4.1107    7.5020 C.3       1 <0>         0.0263 
      26 N4        -0.6581    0.8175    3.6900 N.3       1 <0>        -0.5235 
      27 C21        0.5445    0.6033    2.8326 C.3       1 <0>         0.0085 
      28 C22        0.5460   -0.8109    2.1992 C.3       1 <0>         0.0643 
      29 O3        -0.6639   -1.0007    1.4474 O.3       1 <0>        -0.3844 
      30 C23       -1.8340   -0.8668    2.2651 C.3       1 <0>         0.0641 
      31 C24       -1.8879    0.5426    2.9092 C.3       1 <0>         0.0200 
      32 H1         2.1688   -4.3793    9.0818 H         1 <0>         0.0684 
      33 H2         2.0411   -3.3582    7.6096 H         1 <0>         0.0673 
      34 H3         2.2622   -5.1279    7.4570 H         1 <0>         0.0762 
      35 H4        -0.1466   -3.5623    6.0954 H         1 <0>         0.0772 
      36 H5         0.1389   -5.3328    5.9941 H         1 <0>         0.1076 
      37 H6        -1.4241   -4.6856    6.5590 H         1 <0>         0.0533 
      38 H7        -1.1903   -6.1088    8.6413 H         1 <0>         0.0541 
      39 H8         0.2719   -6.0116    9.6762 H         1 <0>         0.1047 
      40 H9         0.3735   -6.7318    8.0388 H         1 <0>         0.0783 
      41 H10       -1.8836   -0.8313    9.8191 H         1 <0>         0.1546 
      42 H11       -1.0653   -3.4302   12.9304 H         1 <0>         0.1185 
      43 H12       -3.2722   -1.4352   11.8746 H         1 <0>         0.0960 
      44 H13       -3.1739   -2.2370   13.5741 H         1 <0>         0.1015 
      45 H14       -1.0081   -0.3585   12.2269 H         1 <0>         0.1002 
      46 H15       -0.8887   -1.1450   13.9327 H         1 <0>         0.0943 
      47 H16       -1.9852   -0.0218    8.0553 H         1 <0>         0.4026 
      48 H17       -1.9503    1.2905    6.1132 H         1 <0>         0.0820 
      49 H18       -2.6432   -0.2019    5.3892 H         1 <0>         0.0826 
      50 H19       -0.3325   -0.9809    4.8159 H         1 <0>         0.0584 
      51 H20       -0.2123    2.7889    5.4629 H         1 <0>         0.1381 
      52 H21        1.6072    3.9084    6.7107 H         1 <0>         0.1314 
      53 H22        3.4398    0.0973    7.4675 H         1 <0>         0.1295 
      54 H23        1.6610   -1.0122    6.2177 H         1 <0>         0.1215 
      55 H24        3.2044    4.7963    7.5587 H         1 <0>         0.0567 
      56 H25        4.8528    4.4782    8.1806 H         1 <0>         0.0562 
      57 H26        4.4323    4.0952    6.4620 H         1 <0>         0.1014 
      58 H27        1.4737    0.7022    3.4226 H         1 <0>         0.0471 
      59 H28        0.6097    1.3251    2.0004 H         1 <0>         0.0943 
      60 H29        1.4300   -0.9308    1.5470 H         1 <0>         0.0999 
      61 H30        0.5877   -1.5913    2.9792 H         1 <0>         0.0621 
      62 H31       -2.7484   -1.0476    1.6712 H         1 <0>         0.0991 
      63 H32       -1.7845   -1.6375    3.0542 H         1 <0>         0.0615 
      64 H33       -2.7735    0.5910    3.5670 H         1 <0>         0.0908 
      65 H34       -2.0090    1.2857    2.1003 H         1 <0>         0.0448 
@<TRIPOS>BOND
       1        1        2 1        
       2        1       32 1        
       3        1       33 1        
       4        1       34 1        
       5        2        3 1        
       6        2        4 1        
       7        2        5 1        
       8        3       35 1        
       9        3       36 1        
      10        3       37 1        
      11        4       38 1        
      12        4       39 1        
      13        4       40 1        
      14        5        9 1        
      15        5        6 1        
      16        6        7 2        
      17        6       13 1        
      18        7        8 1        
      19        7       41 1        
      20        8        9 2        
      21        8       10 1        
      22       10       12 1        
      23       10       11 1        
      24       10       42 1        
      25       11       12 1        
      26       11       43 1        
      27       11       44 1        
      28       12       45 1        
      29       12       46 1        
      30       13       14 2        
      31       13       15 am       
      32       15       16 1        
      33       15       47 1        
      34       16       17 1        
      35       16       48 1        
      36       16       49 1        
      37       17       18 1        
      38       17       26 1        
      39       17       50 1        
      40       18       23 ar       
      41       18       19 ar       
      42       19       20 ar       
      43       19       51 1        
      44       20       21 ar       
      45       20       52 1        
      46       21       22 ar       
      47       21       24 1        
      48       22       23 ar       
      49       22       53 1        
      50       23       54 1        
      51       24       25 1        
      52       25       55 1        
      53       25       56 1        
      54       25       57 1        
      55       26       31 1        
      56       26       27 1        
      57       27       28 1        
      58       27       58 1        
      59       27       59 1        
      60       28       29 1        
      61       28       60 1        
      62       28       61 1        
      63       29       30 1        
      64       30       31 1        
      65       30       62 1        
      66       30       63 1        
      67       31       64 1        
      68       31       65 1        

