#        1GCZ_R01_S0001_C0000_L00008_S0001_C0027_G0010_E0001.mol2
#        Tue Jun  6 09:57:30 2017
#        Descriptor:      2    13     1     8     9    14
#        Energy - RMSD - RMSD MassCentre:     -83.9581    999.9999    999.9999
#        Receptor:       1  Surface Point:     1  Conformer:     0
#        Ligand:         8  Surface Point:     1  Conformer:    27
#        BUDE Formal Charge: 0
#        ATOM Count: 65
#        Heavy ATOM Count: 31
@<TRIPOS>MOLECULE
ZINC61400536_1GCZ_R01_S0001_C0000_L00008_S0001_C0027_G0010_E0001
 65 68 0 0 0
SMALL
USER_CHARGES
@<TRIPOS>ATOM
       1 C1        -0.8106    5.3075    8.3769 C.3       1 <0>        -0.1457 
       2 C2         0.0808    4.0627    8.6655 C.3       1 <0>         0.1768 
       3 C3         1.0760    3.7832    7.4876 C.3       1 <0>        -0.1798 
       4 C4         0.9733    4.3598    9.9194 C.3       1 <0>        -0.1802 
       5 N1        -0.7964    2.9306    8.9859 N.pl3     1 <0>        -0.2386 
       6 C5        -1.1979    1.9500    8.2170 C.2       1 <0>        -0.0401 
       7 C6        -1.9339    1.1069    8.9538 C.2       1 <0>        -0.1820 
       8 C7        -1.9449    1.6552   10.2976 C.2       1 <0>         0.0520 
       9 N2        -1.2548    2.7127   10.2365 N.2       1 <0>        -0.2594 
      10 C8        -2.6094    1.1373   11.5441 C.3       1 <0>        -0.0741 
      11 C9        -1.6996    0.5083   12.6257 C.3       1 <0>        -0.1663 
      12 C10       -2.6087   -0.3943   11.7623 C.3       1 <0>        -0.1657 
      13 C11       -0.9897    1.6878    6.7758 C.2       1 <0>         0.5920 
      14 O1        -0.3537    2.4900    6.1126 O.2       1 <0>        -0.5202 
      15 N3        -1.5556    0.6033    6.1866 N.am      1 <0>        -0.7096 
      16 C12       -1.3471    0.3581    4.7645 C.3       1 <0>         0.1269 
      17 C13        0.0949    0.6278    4.2401 C.3       1 <0>         0.1209 
      18 C14       -0.0284    0.4580    2.7071 C.ar      1 <0>        -0.1261 
      19 C15       -0.2118   -0.8112    2.1482 C.ar      1 <0>        -0.0471 
      20 C16       -0.3324   -0.9557    0.7641 C.ar      1 <0>        -0.1526 
      21 C17       -0.2955    0.1521   -0.0878 C.ar      1 <0>         0.1329 
      22 C18       -0.1024    1.4160    0.4709 C.ar      1 <0>        -0.2055 
      23 C19        0.0305    1.5677    1.8552 C.ar      1 <0>        -0.0791 
      24 O2        -0.4309   -0.0562   -1.4743 O.3       1 <0>        -0.3169 
      25 C20        0.0675   -1.2490   -2.1053 C.3       1 <0>         0.0263 
      26 N4         1.1293   -0.3584    4.6595 N.3       1 <0>        -0.5235 
      27 C21        2.4199   -0.1411    4.0016 C.3       1 <0>         0.0085 
      28 C22        3.5529   -0.8692    4.7681 C.3       1 <0>         0.0643 
      29 O3         3.0346   -2.0712    5.3612 O.3       1 <0>        -0.3844 
      30 C23        2.1339   -1.7949    6.4420 C.3       1 <0>         0.0641 
      31 C24        1.2697   -0.5476    6.1232 C.3       1 <0>         0.0200 
      32 H1        -1.4718    5.5119    9.2356 H         1 <0>         0.0684 
      33 H2        -1.4287    5.1281    7.4814 H         1 <0>         0.0673 
      34 H3        -0.1784    6.1898    8.1981 H         1 <0>         0.0762 
      35 H4         0.5208    3.5549    6.5623 H         1 <0>         0.0772 
      36 H5         1.7154    4.6651    7.3152 H         1 <0>         0.1076 
      37 H6         1.7265    2.9195    7.6810 H         1 <0>         0.0533 
      38 H7         1.6245    3.4983   10.1448 H         1 <0>         0.0541 
      39 H8         0.3387    4.5652   10.7981 H         1 <0>         0.1047 
      40 H9         1.6139    5.2385    9.7347 H         1 <0>         0.0783 
      41 H10       -2.4419    0.1968    8.6331 H         1 <0>         0.1546 
      42 H11       -3.5021    1.6599   11.9287 H         1 <0>         0.1185 
      43 H12       -0.6191    0.4673   12.4101 H         1 <0>         0.0960 
      44 H13       -1.9969    0.6751   13.6748 H         1 <0>         0.1015 
      45 H14       -2.1109   -1.0094   10.9946 H         1 <0>         0.1002 
      46 H15       -3.5026   -0.8212   12.2477 H         1 <0>         0.0943 
      47 H16       -2.1151   -0.0202    6.7297 H         1 <0>         0.4026 
      48 H17       -2.0343    1.0058    4.1900 H         1 <0>         0.0820 
      49 H18       -1.5759   -0.6978    4.5352 H         1 <0>         0.0826 
      50 H19        0.3934    1.6535    4.5238 H         1 <0>         0.0584 
      51 H20       -0.2606   -1.6911    2.7830 H         1 <0>         0.1381 
      52 H21       -0.4727   -1.9420    0.3310 H         1 <0>         0.1314 
      53 H22       -0.0512    2.3067   -0.1451 H         1 <0>         0.1295 
      54 H23        0.1827    2.5597    2.2712 H         1 <0>         0.1215 
      55 H24       -0.4413   -2.1264   -1.6749 H         1 <0>         0.0567 
      56 H25       -0.1392   -1.2188   -3.1883 H         1 <0>         0.0562 
      57 H26        1.1510   -1.3492   -1.9251 H         1 <0>         0.1014 
      58 H27        2.6801    0.9325    3.9687 H         1 <0>         0.0471 
      59 H28        2.4469   -0.5140    2.9633 H         1 <0>         0.0943 
      60 H29        4.3835   -1.1047    4.0784 H         1 <0>         0.0999 
      61 H30        3.9506   -0.2341    5.5789 H         1 <0>         0.0621 
      62 H31        1.4836   -2.6662    6.6410 H         1 <0>         0.0991 
      63 H32        2.7391   -1.6099    7.3469 H         1 <0>         0.0615 
      64 H33        1.7538    0.3359    6.5751 H         1 <0>         0.0908 
      65 H34        0.2796   -0.6862    6.5939 H         1 <0>         0.0448 
@<TRIPOS>BOND
       1        1        2 1        
       2        1       32 1        
       3        1       33 1        
       4        1       34 1        
       5        2        3 1        
       6        2        4 1        
       7        2        5 1        
       8        3       35 1        
       9        3       36 1        
      10        3       37 1        
      11        4       38 1        
      12        4       39 1        
      13        4       40 1        
      14        5        9 1        
      15        5        6 1        
      16        6        7 2        
      17        6       13 1        
      18        7        8 1        
      19        7       41 1        
      20        8        9 2        
      21        8       10 1        
      22       10       12 1        
      23       10       11 1        
      24       10       42 1        
      25       11       12 1        
      26       11       43 1        
      27       11       44 1        
      28       12       45 1        
      29       12       46 1        
      30       13       14 2        
      31       13       15 am       
      32       15       16 1        
      33       15       47 1        
      34       16       17 1        
      35       16       48 1        
      36       16       49 1        
      37       17       18 1        
      38       17       26 1        
      39       17       50 1        
      40       18       23 ar       
      41       18       19 ar       
      42       19       20 ar       
      43       19       51 1        
      44       20       21 ar       
      45       20       52 1        
      46       21       22 ar       
      47       21       24 1        
      48       22       23 ar       
      49       22       53 1        
      50       23       54 1        
      51       24       25 1        
      52       25       55 1        
      53       25       56 1        
      54       25       57 1        
      55       26       31 1        
      56       26       27 1        
      57       27       28 1        
      58       27       58 1        
      59       27       59 1        
      60       28       29 1        
      61       28       60 1        
      62       28       61 1        
      63       29       30 1        
      64       30       31 1        
      65       30       62 1        
      66       30       63 1        
      67       31       64 1        
      68       31       65 1        

