#        1GCZ_R01_S0001_C0000_L00008_S0001_C0027_G0010_E0001.mol2
#        Tue Jun  6 14:10:24 2017
#        Descriptor:      2    14    36     7     9    14
#        Energy - RMSD - RMSD MassCentre:     -75.2164    999.9999    999.9999
#        Receptor:       1  Surface Point:     1  Conformer:     0
#        Ligand:         8  Surface Point:     1  Conformer:    27
#        BUDE Formal Charge: 0
#        ATOM Count: 65
#        Heavy ATOM Count: 31
@<TRIPOS>MOLECULE
ZINC61400536_1GCZ_R01_S0001_C0000_L00008_S0001_C0027_G0010_E0001
 65 68 0 0 0
SMALL
USER_CHARGES
@<TRIPOS>ATOM
       1 C1        -1.4622    5.3828    8.3320 C.3       1 <0>        -0.1457 
       2 C2        -0.8607    4.0022    8.7312 C.3       1 <0>         0.1768 
       3 C3         0.2612    3.5540    7.7330 C.3       1 <0>        -0.1798 
       4 C4        -0.1621    4.1398   10.1276 C.3       1 <0>        -0.1802 
       5 N1        -1.9607    3.0396    8.8626 N.pl3     1 <0>        -0.2386 
       6 C5        -2.3843    2.1436    8.0071 C.2       1 <0>        -0.0401 
       7 C6        -3.3702    1.4411    8.5814 C.2       1 <0>        -0.1820 
       8 C7        -3.5205    1.9830    9.9195 C.2       1 <0>         0.0520 
       9 N2        -2.6597    2.9046   10.0092 N.2       1 <0>        -0.2594 
      10 C8        -4.4700    1.5883   11.0178 C.3       1 <0>        -0.0741 
      11 C9        -3.8829    0.8109   12.2195 C.3       1 <0>        -0.1663 
      12 C10       -4.7691    0.0799   11.1866 C.3       1 <0>        -0.1657 
      13 C11       -1.9770    1.8492    6.6155 C.2       1 <0>         0.5920 
      14 O1        -1.1078    2.5288    6.0954 O.2       1 <0>        -0.5202 
      15 N3        -2.6089    0.8794    5.9057 N.am      1 <0>        -0.7096 
      16 C12       -2.2018    0.6018    4.5336 C.3       1 <0>         0.1269 
      17 C13       -0.6660    0.6170    4.2718 C.3       1 <0>         0.1209 
      18 C14       -0.5484    0.4712    2.7360 C.ar      1 <0>        -0.1261 
      19 C15       -0.8463   -0.7469    2.1159 C.ar      1 <0>        -0.0471 
      20 C16       -0.7476   -0.8683    0.7278 C.ar      1 <0>        -0.1526 
      21 C17       -0.3745    0.2163   -0.0714 C.ar      1 <0>         0.1329 
      22 C18       -0.0680    1.4274    0.5499 C.ar      1 <0>        -0.2055 
      23 C19       -0.1536    1.5538    1.9405 C.ar      1 <0>        -0.0791 
      24 O2        -0.3006    0.0347   -1.4663 O.3       1 <0>        -0.3169 
      25 C20        0.0883   -1.2265   -2.0384 C.3       1 <0>         0.0263 
      26 N4         0.0957   -0.5338    4.8321 N.3       1 <0>        -0.5235 
      27 C21        1.4988   -0.5440    4.4114 C.3       1 <0>         0.0085 
      28 C22        2.3400   -1.4578    5.3380 C.3       1 <0>         0.0643 
      29 O3         1.5288   -2.5515    5.7972 O.3       1 <0>        -0.3844 
      30 C23        0.5149   -2.1230    6.7159 C.3       1 <0>         0.0641 
      31 C24       -0.0546   -0.7446    6.2918 C.3       1 <0>         0.0200 
      32 H1        -2.2177    5.6989    9.0708 H         1 <0>         0.0684 
      33 H2        -1.9370    5.3135    7.3391 H         1 <0>         0.0673 
      34 H3        -0.6672    6.1419    8.2907 H         1 <0>         0.0762 
      35 H4        -0.1556    3.4256    6.7199 H         1 <0>         0.0772 
      36 H5         1.0621    4.3115    7.6991 H         1 <0>         0.1076 
      37 H6         0.7108    2.5905    8.0085 H         1 <0>         0.0533 
      38 H7         0.2830    3.1782   10.4350 H         1 <0>         0.0541 
      39 H8        -0.8950    4.4523   10.8907 H         1 <0>         0.1047 
      40 H9         0.6415    4.8938   10.0817 H         1 <0>         0.0783 
      41 H10       -3.9628    0.6331    8.1513 H         1 <0>         0.1546 
      42 H11       -5.3131    2.2580   11.2597 H         1 <0>         0.1185 
      43 H12       -2.8047    0.5829   12.1908 H         1 <0>         0.0960 
      44 H13       -4.3250    1.0268   13.2069 H         1 <0>         0.1015 
      45 H14       -4.2581   -0.6124   10.4972 H         1 <0>         0.1002 
      46 H15       -5.7933   -0.1853   11.4989 H         1 <0>         0.0943 
      47 H16       -3.3525    0.3626    6.3262 H         1 <0>         0.4026 
      48 H17       -2.6577    1.3590    3.8698 H         1 <0>         0.0820 
      49 H18       -2.5644   -0.3983    4.2368 H         1 <0>         0.0826 
      50 H19       -0.2503    1.5752    4.6333 H         1 <0>         0.0584 
      51 H20       -1.1543   -1.6050    2.7062 H         1 <0>         0.1381 
      52 H21       -0.9771   -1.8152    0.2476 H         1 <0>         0.1314 
      53 H22        0.2409    2.2957   -0.0211 H         1 <0>         0.1295 
      54 H23        0.0914    2.5043    2.4061 H         1 <0>         0.1215 
      55 H24       -0.6299   -2.0023   -1.7280 H         1 <0>         0.0567 
      56 H25        0.0811   -1.1609   -3.1394 H         1 <0>         0.0562 
      57 H26        1.0907   -1.5134   -1.6788 H         1 <0>         0.1014 
      58 H27        1.9405    0.4681    4.4558 H         1 <0>         0.0471 
      59 H28        1.6415   -0.9159    3.3822 H         1 <0>         0.0943 
      60 H29        3.2251   -1.8339    4.7937 H         1 <0>         0.0999 
      61 H30        2.6935   -0.9013    6.2237 H         1 <0>         0.0621 
      62 H31       -0.2994   -2.8681    6.7745 H         1 <0>         0.0991 
      63 H32        0.9763   -2.0459    7.7161 H         1 <0>         0.0615 
      64 H33        0.4875    0.0414    6.8463 H         1 <0>         0.0908 
      65 H34       -1.1203   -0.7092    6.5819 H         1 <0>         0.0448 
@<TRIPOS>BOND
       1        1        2 1        
       2        1       32 1        
       3        1       33 1        
       4        1       34 1        
       5        2        3 1        
       6        2        4 1        
       7        2        5 1        
       8        3       35 1        
       9        3       36 1        
      10        3       37 1        
      11        4       38 1        
      12        4       39 1        
      13        4       40 1        
      14        5        9 1        
      15        5        6 1        
      16        6        7 2        
      17        6       13 1        
      18        7        8 1        
      19        7       41 1        
      20        8        9 2        
      21        8       10 1        
      22       10       12 1        
      23       10       11 1        
      24       10       42 1        
      25       11       12 1        
      26       11       43 1        
      27       11       44 1        
      28       12       45 1        
      29       12       46 1        
      30       13       14 2        
      31       13       15 am       
      32       15       16 1        
      33       15       47 1        
      34       16       17 1        
      35       16       48 1        
      36       16       49 1        
      37       17       18 1        
      38       17       26 1        
      39       17       50 1        
      40       18       23 ar       
      41       18       19 ar       
      42       19       20 ar       
      43       19       51 1        
      44       20       21 ar       
      45       20       52 1        
      46       21       22 ar       
      47       21       24 1        
      48       22       23 ar       
      49       22       53 1        
      50       23       54 1        
      51       24       25 1        
      52       25       55 1        
      53       25       56 1        
      54       25       57 1        
      55       26       31 1        
      56       26       27 1        
      57       27       28 1        
      58       27       58 1        
      59       27       59 1        
      60       28       29 1        
      61       28       60 1        
      62       28       61 1        
      63       29       30 1        
      64       30       31 1        
      65       30       62 1        
      66       30       63 1        
      67       31       64 1        
      68       31       65 1        

