#        1GCZ_R01_S0001_C0000_L00008_S0001_C0028_G0010_E0001.mol2
#        Tue Jun  6 09:57:31 2017
#        Descriptor:      3    15    36     7    10    15
#        Energy - RMSD - RMSD MassCentre:     -73.4974    999.9999    999.9999
#        Receptor:       1  Surface Point:     1  Conformer:     0
#        Ligand:         8  Surface Point:     1  Conformer:    28
#        BUDE Formal Charge: 0
#        ATOM Count: 65
#        Heavy ATOM Count: 31
@<TRIPOS>MOLECULE
ZINC61400536_1GCZ_R01_S0001_C0000_L00008_S0001_C0028_G0010_E0001
 65 68 0 0 0
SMALL
USER_CHARGES
@<TRIPOS>ATOM
       1 C1        -0.8809    7.3553    8.3827 C.3       1 <0>        -0.1457 
       2 C2        -0.2432    6.1158    9.0788 C.3       1 <0>         0.1768 
       3 C3         1.0742    5.6670    8.3585 C.3       1 <0>        -0.1798 
       4 C4         0.1788    6.5151   10.5345 C.3       1 <0>        -0.1802 
       5 N1        -1.2612    5.0626    9.1699 N.pl3     1 <0>        -0.2386 
       6 C5        -1.4449    4.0191    8.4008 C.2       1 <0>        -0.0401 
       7 C6        -2.4531    3.2937    8.9033 C.2       1 <0>        -0.1820 
       8 C7        -2.8875    3.9885   10.1013 C.2       1 <0>         0.0520 
       9 N2        -2.1402    5.0041   10.1923 N.2       1 <0>        -0.2594 
      10 C8        -3.9808    3.6399   11.0743 C.3       1 <0>        -0.0741 
      11 C9        -4.7260    4.8119   11.7558 C.3       1 <0>        -0.1663 
      12 C10       -3.7271    3.9571   12.5671 C.3       1 <0>        -0.1657 
      13 C11       -0.7705    3.5896    7.1559 C.2       1 <0>         0.5920 
      14 O1         0.1156    4.2866    6.6903 O.2       1 <0>        -0.5202 
      15 N3        -1.1781    2.4696    6.5055 N.am      1 <0>        -0.7096 
      16 C12       -0.5088    2.0590    5.2770 C.3       1 <0>         0.1269 
      17 C13       -1.0957    0.7942    4.5820 C.3       1 <0>         0.1209 
      18 C14       -0.8776   -0.3348    5.6172 C.ar      1 <0>        -0.1261 
      19 C15        0.4085   -0.8231    5.8713 C.ar      1 <0>        -0.0471 
      20 C16        0.5990   -1.8355    6.8146 C.ar      1 <0>        -0.1526 
      21 C17       -0.4737   -2.3664    7.5371 C.ar      1 <0>         0.1329 
      22 C18       -1.7567   -1.8850    7.2749 C.ar      1 <0>        -0.2055 
      23 C19       -1.9571   -0.8790    6.3235 C.ar      1 <0>        -0.0791 
      24 O2        -0.2176   -3.3801    8.4810 O.3       1 <0>        -0.3169 
      25 C20        0.8378   -4.3376    8.2850 C.3       1 <0>         0.0263 
      26 N4        -0.3817    0.3417    3.3556 N.3       1 <0>        -0.5235 
      27 C21       -0.9482   -0.7782    2.8755 C.3       1 <0>         0.0085 
      28 C22       -0.3635   -1.1098    1.4793 C.3       1 <0>         0.0643 
      29 O3        -0.8635   -0.1694    0.5147 O.3       1 <0>        -0.3844 
      30 C23       -1.1492    1.1065    1.1026 C.3       1 <0>         0.0641 
      31 C24       -0.2075    1.3733    2.3052 C.3       1 <0>         0.0200 
      32 H1        -1.7813    7.6805    8.9304 H         1 <0>         0.0684 
      33 H2        -1.1619    7.1019    7.3468 H         1 <0>         0.0673 
      34 H3        -0.1603    8.1861    8.3595 H         1 <0>         0.0762 
      35 H4         0.8587    5.3592    7.3214 H         1 <0>         0.0772 
      36 H5         1.7993    6.4978    8.3438 H         1 <0>         0.1076 
      37 H6         1.5490    4.8049    8.8463 H         1 <0>         0.0533 
      38 H7         0.6433    5.6587   11.0523 H         1 <0>         0.0541 
      39 H8        -0.7034    6.8425   11.1103 H         1 <0>         0.1047 
      40 H9         0.9091    7.3413   10.5092 H         1 <0>         0.0783 
      41 H10       -2.8865    2.3745    8.5077 H         1 <0>         0.1546 
      42 H11       -4.5925    2.7404   10.8891 H         1 <0>         0.1185 
      43 H12       -4.4006    5.8325   11.4948 H         1 <0>         0.0960 
      44 H13       -5.8011    4.6619   11.9525 H         1 <0>         0.1015 
      45 H14       -2.7640    4.4293   12.8223 H         1 <0>         0.1002 
      46 H15       -4.1490    3.2469   13.2982 H         1 <0>         0.0943 
      47 H16       -1.9374    1.9335    6.8702 H         1 <0>         0.4026 
      48 H17        0.5519    1.8480    5.5063 H         1 <0>         0.0820 
      49 H18       -0.5585    2.8788    4.5387 H         1 <0>         0.0826 
      50 H19       -2.1669    0.9659    4.3709 H         1 <0>         0.0584 
      51 H20        1.2656   -0.4216    5.3386 H         1 <0>         0.1381 
      52 H21        1.5977   -2.2156    7.0096 H         1 <0>         0.1314 
      53 H22       -2.6253   -2.2720    7.7957 H         1 <0>         0.1295 
      54 H23       -2.9639   -0.5190    6.1316 H         1 <0>         0.1215 
      55 H24        1.8018   -3.8075    8.2271 H         1 <0>         0.0567 
      56 H25        0.8734   -5.0406    9.1341 H         1 <0>         0.0562 
      57 H26        0.6823   -4.8857    7.3407 H         1 <0>         0.1014 
      58 H27       -2.0413   -0.6660    2.7579 H         1 <0>         0.0471 
      59 H28       -0.7792   -1.6648    3.5104 H         1 <0>         0.0943 
      60 H29        0.7405   -1.0773    1.5157 H         1 <0>         0.0999 
      61 H30       -0.6656   -2.1216    1.1564 H         1 <0>         0.0621 
      62 H31       -1.0466    1.9134    0.3541 H         1 <0>         0.0991 
      63 H32       -2.1990    1.0933    1.4447 H         1 <0>         0.0615 
      64 H33       -0.4388    2.3729    2.7132 H         1 <0>         0.0908 
      65 H34        0.8329    1.3770    1.9327 H         1 <0>         0.0448 
@<TRIPOS>BOND
       1        1        2 1        
       2        1       32 1        
       3        1       33 1        
       4        1       34 1        
       5        2        3 1        
       6        2        4 1        
       7        2        5 1        
       8        3       35 1        
       9        3       36 1        
      10        3       37 1        
      11        4       38 1        
      12        4       39 1        
      13        4       40 1        
      14        5        9 1        
      15        5        6 1        
      16        6        7 2        
      17        6       13 1        
      18        7        8 1        
      19        7       41 1        
      20        8        9 2        
      21        8       10 1        
      22       10       12 1        
      23       10       11 1        
      24       10       42 1        
      25       11       12 1        
      26       11       43 1        
      27       11       44 1        
      28       12       45 1        
      29       12       46 1        
      30       13       14 2        
      31       13       15 am       
      32       15       16 1        
      33       15       47 1        
      34       16       17 1        
      35       16       48 1        
      36       16       49 1        
      37       17       18 1        
      38       17       26 1        
      39       17       50 1        
      40       18       23 ar       
      41       18       19 ar       
      42       19       20 ar       
      43       19       51 1        
      44       20       21 ar       
      45       20       52 1        
      46       21       22 ar       
      47       21       24 1        
      48       22       23 ar       
      49       22       53 1        
      50       23       54 1        
      51       24       25 1        
      52       25       55 1        
      53       25       56 1        
      54       25       57 1        
      55       26       31 1        
      56       26       27 1        
      57       27       28 1        
      58       27       58 1        
      59       27       59 1        
      60       28       29 1        
      61       28       60 1        
      62       28       61 1        
      63       29       30 1        
      64       30       31 1        
      65       30       62 1        
      66       30       63 1        
      67       31       64 1        
      68       31       65 1        

