#        1GCZ_R01_S0001_C0000_L00008_S0001_C0028_G0010_E0001.mol2
#        Tue Jun  6 14:10:26 2017
#        Descriptor:     23     2     5    11     8    13
#        Energy - RMSD - RMSD MassCentre:     -63.2814    999.9999    999.9999
#        Receptor:       1  Surface Point:     1  Conformer:     0
#        Ligand:         8  Surface Point:     1  Conformer:    28
#        BUDE Formal Charge: 0
#        ATOM Count: 65
#        Heavy ATOM Count: 31
@<TRIPOS>MOLECULE
ZINC61400536_1GCZ_R01_S0001_C0000_L00008_S0001_C0028_G0010_E0001
 65 68 0 0 0
SMALL
USER_CHARGES
@<TRIPOS>ATOM
       1 C1         7.6826   -2.9172    4.5900 C.3       1 <0>        -0.1457 
       2 C2         6.6249   -2.8562    5.7323 C.3       1 <0>         0.1768 
       3 C3         5.3633   -3.7221    5.3940 C.3       1 <0>        -0.1798 
       4 C4         7.2428   -3.4866    7.0275 C.3       1 <0>        -0.1802 
       5 N1         6.3237   -1.4466    6.0081 N.pl3     1 <0>        -0.2386 
       6 C5         5.3160   -0.7188    5.5972 C.2       1 <0>        -0.0401 
       7 C6         5.4146    0.4959    6.1540 C.2       1 <0>        -0.1820 
       8 C7         6.6015    0.4581    6.9886 C.2       1 <0>         0.0520 
       9 N2         7.0706   -0.7083    6.8560 N.2       1 <0>        -0.2594 
      10 C8         7.2065    1.5312    7.8523 C.3       1 <0>        -0.0741 
      11 C9         8.7460    1.5368    8.0049 C.3       1 <0>        -0.1663 
      12 C10        7.8554    1.0856    9.1841 C.3       1 <0>        -0.1657 
      13 C11        4.2046   -1.0211    4.6684 C.2       1 <0>         0.5920 
      14 O1         4.1569   -2.1182    4.1374 O.2       1 <0>        -0.5202 
      15 N3         3.2885   -0.0674    4.3605 N.am      1 <0>        -0.7096 
      16 C12        2.2006   -0.3758    3.4402 C.3       1 <0>         0.1269 
      17 C13        1.2425    0.8079    3.1111 C.3       1 <0>         0.1209 
      18 C14        0.5991    1.1566    4.4742 C.ar      1 <0>        -0.1261 
      19 C15       -0.3373    0.2953    5.0559 C.ar      1 <0>        -0.0471 
      20 C16       -0.9064    0.6117    6.2916 C.ar      1 <0>        -0.1526 
      21 C17       -0.5442    1.7720    6.9824 C.ar      1 <0>         0.1329 
      22 C18        0.3823    2.6346    6.3959 C.ar      1 <0>        -0.2055 
      23 C19        0.9484    2.3302    5.1532 C.ar      1 <0>        -0.0791 
      24 O2        -1.1466    2.0328    8.2286 O.3       1 <0>        -0.3169 
      25 C20       -2.4993    1.6300    8.5064 C.3       1 <0>         0.0263 
      26 N4         0.0997    0.4827    2.2126 N.3       1 <0>        -0.5235 
      27 C21       -0.6780    1.5649    2.0411 C.3       1 <0>         0.0085 
      28 C22       -1.7200    1.2958    0.9261 C.3       1 <0>         0.0643 
      29 O3        -1.0623    1.2824   -0.3514 O.3       1 <0>        -0.3844 
      30 C23        0.2995    0.8450   -0.2529 C.3       1 <0>         0.0641 
      31 C24        0.4660   -0.1512    0.9235 C.3       1 <0>         0.0200 
      32 H1         8.5789   -2.3374    4.8671 H         1 <0>         0.0684 
      33 H2         7.2578   -2.5010    3.6613 H         1 <0>         0.0673 
      34 H3         7.9781   -3.9607    4.4060 H         1 <0>         0.0762 
      35 H4         4.8624   -3.3339    4.4912 H         1 <0>         0.0772 
      36 H5         5.6595   -4.7699    5.2186 H         1 <0>         0.1076 
      37 H6         4.6134   -3.7066    6.1965 H         1 <0>         0.0533 
      38 H7         6.5131   -3.4665    7.8548 H         1 <0>         0.0541 
      39 H8         8.1417   -2.9246    7.3329 H         1 <0>         0.1047 
      40 H9         7.5290   -4.5359    6.8444 H         1 <0>         0.0783 
      41 H10        4.7600    1.3571    6.0163 H         1 <0>         0.1546 
      42 H11        6.7295    2.5259    7.8791 H         1 <0>         0.1185 
      43 H12        9.3048    0.7445    7.4800 H         1 <0>         0.0960 
      44 H13        9.2281    2.5261    8.0811 H         1 <0>         0.1015 
      45 H14        7.8430    0.0067    9.4110 H         1 <0>         0.1002 
      46 H15        7.7557    1.7803   10.0351 H         1 <0>         0.0943 
      47 H16        3.3661    0.8427    4.7637 H         1 <0>         0.4026 
      48 H17        1.5876   -1.1856    3.8767 H         1 <0>         0.0820 
      49 H18        2.6185   -0.7227    2.4786 H         1 <0>         0.0826 
      50 H19        1.8357    1.6462    2.7026 H         1 <0>         0.0584 
      51 H20       -0.6292   -0.6221    4.5529 H         1 <0>         0.1381 
      52 H21       -1.6351   -0.0567    6.7414 H         1 <0>         0.1314 
      53 H22        0.6872    3.5548    6.8814 H         1 <0>         0.1295 
      54 H23        1.6663    3.0157    4.7116 H         1 <0>         0.1215 
      55 H24       -2.5757    0.5343    8.4219 H         1 <0>         0.0567 
      56 H25       -2.7787    1.9241    9.5320 H         1 <0>         0.0562 
      57 H26       -3.1886    2.0864    7.7763 H         1 <0>         0.1014 
      58 H27       -0.0885    2.4485    1.7360 H         1 <0>         0.0471 
      59 H28       -1.2444    1.8486    2.9446 H         1 <0>         0.0943 
      60 H29       -2.2283    0.3319    1.1101 H         1 <0>         0.0999 
      61 H30       -2.4877    2.0891    0.9052 H         1 <0>         0.0621 
      62 H31        0.6281    0.3748   -1.1977 H         1 <0>         0.0991 
      63 H32        0.9287    1.7360   -0.0811 H         1 <0>         0.0615 
      64 H33        1.5181   -0.4852    0.9504 H         1 <0>         0.0908 
      65 H34       -0.1768   -1.0279    0.7249 H         1 <0>         0.0448 
@<TRIPOS>BOND
       1        1        2 1        
       2        1       32 1        
       3        1       33 1        
       4        1       34 1        
       5        2        3 1        
       6        2        4 1        
       7        2        5 1        
       8        3       35 1        
       9        3       36 1        
      10        3       37 1        
      11        4       38 1        
      12        4       39 1        
      13        4       40 1        
      14        5        9 1        
      15        5        6 1        
      16        6        7 2        
      17        6       13 1        
      18        7        8 1        
      19        7       41 1        
      20        8        9 2        
      21        8       10 1        
      22       10       12 1        
      23       10       11 1        
      24       10       42 1        
      25       11       12 1        
      26       11       43 1        
      27       11       44 1        
      28       12       45 1        
      29       12       46 1        
      30       13       14 2        
      31       13       15 am       
      32       15       16 1        
      33       15       47 1        
      34       16       17 1        
      35       16       48 1        
      36       16       49 1        
      37       17       18 1        
      38       17       26 1        
      39       17       50 1        
      40       18       23 ar       
      41       18       19 ar       
      42       19       20 ar       
      43       19       51 1        
      44       20       21 ar       
      45       20       52 1        
      46       21       22 ar       
      47       21       24 1        
      48       22       23 ar       
      49       22       53 1        
      50       23       54 1        
      51       24       25 1        
      52       25       55 1        
      53       25       56 1        
      54       25       57 1        
      55       26       31 1        
      56       26       27 1        
      57       27       28 1        
      58       27       58 1        
      59       27       59 1        
      60       28       29 1        
      61       28       60 1        
      62       28       61 1        
      63       29       30 1        
      64       30       31 1        
      65       30       62 1        
      66       30       63 1        
      67       31       64 1        
      68       31       65 1        

