#        1GCZ_R01_S0001_C0000_L00008_S0001_C0029_G0010_E0001.mol2
#        Tue Jun  6 14:10:28 2017
#        Descriptor:     23     4     9    10     9    14
#        Energy - RMSD - RMSD MassCentre:     -74.0879    999.9999    999.9999
#        Receptor:       1  Surface Point:     1  Conformer:     0
#        Ligand:         8  Surface Point:     1  Conformer:    29
#        BUDE Formal Charge: 0
#        ATOM Count: 65
#        Heavy ATOM Count: 31
@<TRIPOS>MOLECULE
ZINC61400536_1GCZ_R01_S0001_C0000_L00008_S0001_C0029_G0010_E0001
 65 68 0 0 0
SMALL
USER_CHARGES
@<TRIPOS>ATOM
       1 C1         7.6155    1.9338    5.8633 C.3       1 <0>        -0.1457 
       2 C2         6.7661    0.9482    6.7203 C.3       1 <0>         0.1768 
       3 C3         6.3562   -0.3215    5.8981 C.3       1 <0>        -0.1798 
       4 C4         7.6446    0.4246    7.9080 C.3       1 <0>        -0.1802 
       5 N1         5.6292    1.6866    7.2826 N.pl3     1 <0>        -0.2386 
       6 C5         4.3895    1.7424    6.8655 C.2       1 <0>        -0.0401 
       7 C6         3.6842    2.4858    7.7287 C.2       1 <0>        -0.1820 
       8 C7         4.6177    2.8902    8.7640 C.2       1 <0>         0.0520 
       9 N2         5.7269    2.3792    8.4368 N.2       1 <0>        -0.2594 
      10 C8         4.3914    3.7327    9.9897 C.3       1 <0>        -0.0741 
      11 C9         4.3672    3.0076   11.3560 C.3       1 <0>        -0.1663 
      12 C10        3.0536    3.5417   10.7427 C.3       1 <0>        -0.1657 
      13 C11        3.7324    1.1712    5.6692 C.2       1 <0>         0.5920 
      14 O1         4.4011    0.5342    4.8723 O.2       1 <0>        -0.5202 
      15 N3         2.4176    1.4096    5.4283 N.am      1 <0>        -0.7096 
      16 C12        1.7825    0.8452    4.2435 C.3       1 <0>         0.1269 
      17 C13        0.2877    1.2312    4.0338 C.3       1 <0>         0.1209 
      18 C14       -0.4293    0.6274    5.2647 C.ar      1 <0>        -0.1261 
      19 C15       -0.5930   -0.7572    5.3797 C.ar      1 <0>        -0.0471 
      20 C16       -1.2323   -1.2958    6.4986 C.ar      1 <0>        -0.1526 
      21 C17       -1.7007   -0.4781    7.5315 C.ar      1 <0>         0.1329 
      22 C18       -1.5454    0.9031    7.4100 C.ar      1 <0>        -0.2055 
      23 C19       -0.9161    1.4509    6.2870 C.ar      1 <0>        -0.0791 
      24 O2        -2.3299   -1.0805    8.6384 O.3       1 <0>        -0.3169 
      25 C20       -3.1072   -2.2825    8.4965 C.3       1 <0>         0.0263 
      26 N4        -0.3787    0.6141    2.8531 N.3       1 <0>        -0.5235 
      27 C21       -1.6701    0.9821    2.8044 C.3       1 <0>         0.0085 
      28 C22       -2.2953    0.5403    1.4571 C.3       1 <0>         0.0643 
      29 O3        -1.7829    1.3648    0.3977 O.3       1 <0>        -0.3844 
      30 C23       -0.4586    1.8389    0.6751 C.3       1 <0>         0.0641 
      31 C24        0.3094    0.8200    1.5561 C.3       1 <0>         0.0200 
      32 H1         7.9295    2.7978    6.4728 H         1 <0>         0.0684 
      33 H2         7.0226    2.2945    5.0063 H         1 <0>         0.0673 
      34 H3         8.5126    1.4241    5.4820 H         1 <0>         0.0762 
      35 H4         5.7230   -0.0358    5.0413 H         1 <0>         0.0772 
      36 H5         7.2566   -0.8368    5.5239 H         1 <0>         0.1076 
      37 H6         5.7718   -1.0377    6.4914 H         1 <0>         0.0533 
      38 H7         7.0727   -0.2847    8.5302 H         1 <0>         0.0541 
      39 H8         7.9720    1.2677    8.5398 H         1 <0>         0.1047 
      40 H9         8.5384   -0.0952    7.5240 H         1 <0>         0.0783 
      41 H10        2.6292    2.7575    7.6810 H         1 <0>         0.1546 
      42 H11        4.7931    4.7604   10.0117 H         1 <0>         0.1185 
      43 H12        4.5052    1.9138   11.3457 H         1 <0>         0.0960 
      44 H13        4.7902    3.5597   12.2123 H         1 <0>         0.1015 
      45 H14        2.3543    2.7910   10.3390 H         1 <0>         0.1002 
      46 H15        2.6144    4.4445   11.1997 H         1 <0>         0.0943 
      47 H16        1.8921    1.9737    6.0627 H         1 <0>         0.4026 
      48 H17        1.8334   -0.2572    4.3068 H         1 <0>         0.0820 
      49 H18        2.3256    1.1769    3.3409 H         1 <0>         0.0826 
      50 H19        0.2032    2.3326    4.0000 H         1 <0>         0.0584 
      51 H20       -0.2269   -1.4218    4.6025 H         1 <0>         0.1381 
      52 H21       -1.3609   -2.3709    6.5860 H         1 <0>         0.1314 
      53 H22       -1.9033    1.5836    8.1743 H         1 <0>         0.1295 
      54 H23       -0.8068    2.5290    6.2094 H         1 <0>         0.1215 
      55 H24       -2.4614   -3.0885    8.1132 H         1 <0>         0.0567 
      56 H25       -3.5102   -2.5903    9.4759 H         1 <0>         0.0562 
      57 H26       -3.9286   -2.1205    7.7784 H         1 <0>         0.1014 
      58 H27       -1.7865    2.0785    2.8789 H         1 <0>         0.0471 
      59 H28       -2.2864    0.5351    3.6033 H         1 <0>         0.0943 
      60 H29       -2.0652   -0.5235    1.2658 H         1 <0>         0.0999 
      61 H30       -3.3934    0.6548    1.4765 H         1 <0>         0.0621 
      62 H31        0.0955    2.0220   -0.2637 H         1 <0>         0.0991 
      63 H32       -0.5492    2.8015    1.2083 H         1 <0>         0.0615 
      64 H33        1.3300    1.2058    1.7252 H         1 <0>         0.0908 
      65 H34        0.3804   -0.1315    0.9985 H         1 <0>         0.0448 
@<TRIPOS>BOND
       1        1        2 1        
       2        1       32 1        
       3        1       33 1        
       4        1       34 1        
       5        2        3 1        
       6        2        4 1        
       7        2        5 1        
       8        3       35 1        
       9        3       36 1        
      10        3       37 1        
      11        4       38 1        
      12        4       39 1        
      13        4       40 1        
      14        5        9 1        
      15        5        6 1        
      16        6        7 2        
      17        6       13 1        
      18        7        8 1        
      19        7       41 1        
      20        8        9 2        
      21        8       10 1        
      22       10       12 1        
      23       10       11 1        
      24       10       42 1        
      25       11       12 1        
      26       11       43 1        
      27       11       44 1        
      28       12       45 1        
      29       12       46 1        
      30       13       14 2        
      31       13       15 am       
      32       15       16 1        
      33       15       47 1        
      34       16       17 1        
      35       16       48 1        
      36       16       49 1        
      37       17       18 1        
      38       17       26 1        
      39       17       50 1        
      40       18       23 ar       
      41       18       19 ar       
      42       19       20 ar       
      43       19       51 1        
      44       20       21 ar       
      45       20       52 1        
      46       21       22 ar       
      47       21       24 1        
      48       22       23 ar       
      49       22       53 1        
      50       23       54 1        
      51       24       25 1        
      52       25       55 1        
      53       25       56 1        
      54       25       57 1        
      55       26       31 1        
      56       26       27 1        
      57       27       28 1        
      58       27       58 1        
      59       27       59 1        
      60       28       29 1        
      61       28       60 1        
      62       28       61 1        
      63       29       30 1        
      64       30       31 1        
      65       30       62 1        
      66       30       63 1        
      67       31       64 1        
      68       31       65 1        

