#        1GCZ_R01_S0001_C0000_L00008_S0001_C0030_G0010_E0001.mol2
#        Tue Jun  6 09:57:32 2017
#        Descriptor:     36    15    22     9     9    13
#        Energy - RMSD - RMSD MassCentre:     -92.5581    999.9999    999.9999
#        Receptor:       1  Surface Point:     1  Conformer:     0
#        Ligand:         8  Surface Point:     1  Conformer:    30
#        BUDE Formal Charge: 0
#        ATOM Count: 65
#        Heavy ATOM Count: 31
@<TRIPOS>MOLECULE
ZINC61400536_1GCZ_R01_S0001_C0000_L00008_S0001_C0030_G0010_E0001
 65 68 0 0 0
SMALL
USER_CHARGES
@<TRIPOS>ATOM
       1 C1         3.2602   -1.3689    8.2543 C.3       1 <0>        -0.1457 
       2 C2         2.0702   -0.3647    8.3067 C.3       1 <0>         0.1768 
       3 C3         0.8876   -0.8267    7.3880 C.3       1 <0>        -0.1798 
       4 C4         1.4952   -0.3379    9.7646 C.3       1 <0>        -0.1802 
       5 N1         2.5815    0.9744    7.9916 N.pl3     1 <0>        -0.2386 
       6 C5         2.5460    1.6295    6.8587 C.2       1 <0>        -0.0401 
       7 C6         3.0720    2.8461    7.0551 C.2       1 <0>        -0.1820 
       8 C7         3.4370    2.9022    8.4588 C.2       1 <0>         0.0520 
       9 N2         3.1131    1.7776    8.9371 N.2       1 <0>        -0.2594 
      10 C8         4.0672    4.0183    9.2465 C.3       1 <0>        -0.0741 
      11 C9         5.0073    3.6242   10.4102 C.3       1 <0>        -0.1663 
      12 C10        3.6053    4.1988   10.7119 C.3       1 <0>        -0.1657 
      13 C11        2.0726    1.2344    5.5138 C.2       1 <0>         0.5920 
      14 O1         1.6376    0.1073    5.3454 O.2       1 <0>        -0.5202 
      15 N3         2.1830    2.0925    4.4674 N.am      1 <0>        -0.7096 
      16 C12        1.7173    1.6899    3.1458 C.3       1 <0>         0.1269 
      17 C13        0.3764    0.8972    3.1181 C.3       1 <0>         0.1209 
      18 C14        0.2310    0.4626    1.6403 C.ar      1 <0>        -0.1261 
      19 C15       -0.0718    1.4051    0.6519 C.ar      1 <0>        -0.0471 
      20 C16       -0.1916    1.0071   -0.6816 C.ar      1 <0>        -0.1526 
      21 C17        0.0069   -0.3231   -1.0632 C.ar      1 <0>         0.1329 
      22 C18        0.2988   -1.2633   -0.0746 C.ar      1 <0>        -0.2055 
      23 C19        0.4093   -0.8745    1.2647 C.ar      1 <0>        -0.0791 
      24 O2        -0.1194   -0.6621   -2.4246 O.3       1 <0>        -0.3169 
      25 C20       -1.0485    0.0213   -3.2842 C.3       1 <0>         0.0263 
      26 N4        -0.8489    1.6910    3.4132 N.3       1 <0>        -0.5235 
      27 C21       -2.0207    0.8130    3.4032 C.3       1 <0>         0.0085 
      28 C22       -2.0567   -0.1984    4.5768 C.3       1 <0>         0.0643 
      29 O3        -1.2910    0.3176    5.6778 O.3       1 <0>        -0.3844 
      30 C23       -1.4604    1.7325    5.8370 C.3       1 <0>         0.0641 
      31 C24       -0.8006    2.4941    4.6585 C.3       1 <0>         0.0200 
      32 H1         4.0622   -1.0479    8.9401 H         1 <0>         0.0684 
      33 H2         3.6632   -1.4216    7.2291 H         1 <0>         0.0673 
      34 H3         2.9197   -2.3718    8.5514 H         1 <0>         0.0762 
      35 H4         1.2120   -0.8631    6.3344 H         1 <0>         0.0772 
      36 H5         0.5411   -1.8284    7.6925 H         1 <0>         0.1076 
      37 H6         0.0309   -0.1403    7.4259 H         1 <0>         0.0533 
      38 H7         0.6428    0.3593    9.8326 H         1 <0>         0.0541 
      39 H8         2.2751   -0.0161   10.4755 H         1 <0>         0.1047 
      40 H9         1.1448   -1.3419   10.0572 H         1 <0>         0.0783 
      41 H10        3.2194    3.6438    6.3264 H         1 <0>         0.1546 
      42 H11        4.3332    4.9542    8.7258 H         1 <0>         0.1185 
      43 H12        5.1478    2.5470   10.5984 H         1 <0>         0.0960 
      44 H13        5.8752    4.2825   10.5846 H         1 <0>         0.1015 
      45 H14        2.8502    3.4899   11.0900 H         1 <0>         0.1002 
      46 H15        3.5551    5.2351   11.0865 H         1 <0>         0.0943 
      47 H16        2.5862    2.9951    4.6074 H         1 <0>         0.4026 
      48 H17        2.4889    1.0505    2.6791 H         1 <0>         0.0820 
      49 H18        1.5689    2.5866    2.5183 H         1 <0>         0.0826 
      50 H19        0.4571    0.0324    3.8016 H         1 <0>         0.0584 
      51 H20       -0.2169    2.4495    0.9123 H         1 <0>         0.1381 
      52 H21       -0.4289    1.7394   -1.4480 H         1 <0>         0.1314 
      53 H22        0.4475   -2.3103   -0.3136 H         1 <0>         0.1295 
      54 H23        0.6349   -1.6217    2.0205 H         1 <0>         0.1215 
      55 H24       -0.7882    1.0913   -3.3213 H         1 <0>         0.0567 
      56 H25       -0.9916   -0.3901   -4.3060 H         1 <0>         0.0562 
      57 H26       -2.0735   -0.0762   -2.8889 H         1 <0>         0.1014 
      58 H27       -2.0438    0.2307    2.4642 H         1 <0>         0.0471 
      59 H28       -2.9603    1.3899    3.4509 H         1 <0>         0.0943 
      60 H29       -3.1022   -0.3818    4.8841 H         1 <0>         0.0999 
      61 H30       -1.6134   -1.1643    4.2773 H         1 <0>         0.0621 
      62 H31       -2.5324    1.9925    5.9040 H         1 <0>         0.0991 
      63 H32       -0.9805    2.0250    6.7874 H         1 <0>         0.0615 
      64 H33        0.2475    2.7125    4.9285 H         1 <0>         0.0908 
      65 H34       -1.3368    3.4511    4.5248 H         1 <0>         0.0448 
@<TRIPOS>BOND
       1        1        2 1        
       2        1       32 1        
       3        1       33 1        
       4        1       34 1        
       5        2        3 1        
       6        2        4 1        
       7        2        5 1        
       8        3       35 1        
       9        3       36 1        
      10        3       37 1        
      11        4       38 1        
      12        4       39 1        
      13        4       40 1        
      14        5        9 1        
      15        5        6 1        
      16        6        7 2        
      17        6       13 1        
      18        7        8 1        
      19        7       41 1        
      20        8        9 2        
      21        8       10 1        
      22       10       12 1        
      23       10       11 1        
      24       10       42 1        
      25       11       12 1        
      26       11       43 1        
      27       11       44 1        
      28       12       45 1        
      29       12       46 1        
      30       13       14 2        
      31       13       15 am       
      32       15       16 1        
      33       15       47 1        
      34       16       17 1        
      35       16       48 1        
      36       16       49 1        
      37       17       18 1        
      38       17       26 1        
      39       17       50 1        
      40       18       23 ar       
      41       18       19 ar       
      42       19       20 ar       
      43       19       51 1        
      44       20       21 ar       
      45       20       52 1        
      46       21       22 ar       
      47       21       24 1        
      48       22       23 ar       
      49       22       53 1        
      50       23       54 1        
      51       24       25 1        
      52       25       55 1        
      53       25       56 1        
      54       25       57 1        
      55       26       31 1        
      56       26       27 1        
      57       27       28 1        
      58       27       58 1        
      59       27       59 1        
      60       28       29 1        
      61       28       60 1        
      62       28       61 1        
      63       29       30 1        
      64       30       31 1        
      65       30       62 1        
      66       30       63 1        
      67       31       64 1        
      68       31       65 1        

