#        1GCZ_R01_S0001_C0000_L00008_S0001_C0030_G0010_E0001.mol2
#        Tue Jun  6 14:10:30 2017
#        Descriptor:      2    14     1     7     9    14
#        Energy - RMSD - RMSD MassCentre:     -68.2261    999.9999    999.9999
#        Receptor:       1  Surface Point:     1  Conformer:     0
#        Ligand:         8  Surface Point:     1  Conformer:    30
#        BUDE Formal Charge: 0
#        ATOM Count: 65
#        Heavy ATOM Count: 31
@<TRIPOS>MOLECULE
ZINC61400536_1GCZ_R01_S0001_C0000_L00008_S0001_C0030_G0010_E0001
 65 68 0 0 0
SMALL
USER_CHARGES
@<TRIPOS>ATOM
       1 C1        -2.1513    4.8573    8.2596 C.3       1 <0>        -0.1457 
       2 C2        -1.3192    3.6021    8.6588 C.3       1 <0>         0.1768 
       3 C3        -0.1365    3.3556    7.6605 C.3       1 <0>        -0.1798 
       4 C4        -0.6551    3.8590   10.0551 C.3       1 <0>        -0.1802 
       5 N1        -2.2354    2.4632    8.7901 N.pl3     1 <0>        -0.2386 
       6 C5        -2.4969    1.5072    7.9347 C.2       1 <0>        -0.0401 
       7 C6        -3.3459    0.6442    8.5090 C.2       1 <0>        -0.1820 
       8 C7        -3.5879    1.1518    9.8471 C.2       1 <0>         0.0520 
       9 N2        -2.9003    2.2088    9.9368 N.2       1 <0>        -0.2594 
      10 C8        -4.4544    0.5982   10.9453 C.3       1 <0>        -0.0741 
      11 C9        -5.1278    1.6131   11.8992 C.3       1 <0>        -0.1663 
      12 C10       -3.9433    0.7551   12.3971 C.3       1 <0>        -0.1657 
      13 C11       -2.0447    1.2880    6.5431 C.2       1 <0>         0.5920 
      14 O1        -1.3067    2.1082    6.0229 O.2       1 <0>        -0.5202 
      15 N3        -2.4986    0.2233    5.8333 N.am      1 <0>        -0.7096 
      16 C12       -2.0494    0.0205    4.4611 C.3       1 <0>         0.1269 
      17 C13       -0.5397    0.3022    4.1994 C.3       1 <0>         0.1209 
      18 C14       -0.3985    0.1790    2.6635 C.ar      1 <0>        -0.1261 
      19 C15       -0.4803   -1.0723    2.0435 C.ar      1 <0>        -0.0471 
      20 C16       -0.3621   -1.1747    0.6554 C.ar      1 <0>        -0.1526 
      21 C17       -0.1830   -0.0418   -0.1439 C.ar      1 <0>         0.1329 
      22 C18       -0.0914    1.2042    0.4775 C.ar      1 <0>        -0.2055 
      23 C19       -0.1977    1.3137    1.8680 C.ar      1 <0>        -0.0791 
      24 O2        -0.0787   -0.2078   -1.5387 O.3       1 <0>        -0.3169 
      25 C20        0.5233   -1.3823   -2.1109 C.3       1 <0>         0.0263 
      26 N4         0.4104   -0.6989    4.7596 N.3       1 <0>        -0.5235 
      27 C21        1.7867   -0.2822    4.4836 C.3       1 <0>         0.0085 
      28 C22        2.2271    0.9833    5.2621 C.3       1 <0>         0.0643 
      29 O3         1.4398    1.1086    6.4576 O.3       1 <0>        -0.3844 
      30 C23        1.1882   -0.1613    7.0740 C.3       1 <0>         0.0641 
      31 C24        0.2304   -1.0096    6.1980 C.3       1 <0>         0.0200 
      32 H1        -2.9502    5.0375    8.9984 H         1 <0>         0.0684 
      33 H2        -2.6068    4.7067    7.2667 H         1 <0>         0.0673 
      34 H3        -1.5002    5.7430    8.2183 H         1 <0>         0.0762 
      35 H4        -0.5247    3.1568    6.6474 H         1 <0>         0.0772 
      36 H5         0.5207    4.2407    7.6266 H         1 <0>         0.1076 
      37 H6         0.4736    2.4848    7.9361 H         1 <0>         0.0533 
      38 H7        -0.0497    2.9893   10.3626 H         1 <0>         0.0541 
      39 H8        -1.4311    4.0394   10.8182 H         1 <0>         0.1047 
      40 H9         0.0054    4.7411   10.0093 H         1 <0>         0.0783 
      41 H10       -3.7891   -0.2545    8.0789 H         1 <0>         0.1546 
      42 H11       -5.0340   -0.3213   10.7549 H         1 <0>         0.1185 
      43 H12       -4.9205    2.6814   11.7221 H         1 <0>         0.0960 
      44 H13       -6.1351    1.3501   12.2640 H         1 <0>         0.1015 
      45 H14       -2.9801    1.2733   12.5357 H         1 <0>         0.1002 
      46 H15       -4.1754   -0.0704   13.0909 H         1 <0>         0.0943 
      47 H16       -3.1412   -0.4148    6.2537 H         1 <0>         0.4026 
      48 H17       -2.6299    0.6871    3.7974 H         1 <0>         0.0820 
      49 H18       -2.2328   -1.0273    4.1644 H         1 <0>         0.0826 
      50 H19       -0.2967    1.3180    4.5608 H         1 <0>         0.0584 
      51 H20       -0.6347   -1.9708    2.6338 H         1 <0>         0.1381 
      52 H21       -0.4237   -2.1471    0.1751 H         1 <0>         0.1314 
      53 H22        0.0620    2.1129   -0.0936 H         1 <0>         0.1295 
      54 H23       -0.1214    2.2923    2.3337 H         1 <0>         0.1215 
      55 H24       -0.0492   -2.2710   -1.8005 H         1 <0>         0.0567 
      56 H25        0.5049   -1.3189   -3.2118 H         1 <0>         0.0562 
      57 H26        1.5604   -1.4908   -1.7512 H         1 <0>         0.1014 
      58 H27        1.9028   -0.0647    3.4063 H         1 <0>         0.0471 
      59 H28        2.5093   -1.0778    4.7341 H         1 <0>         0.0943 
      60 H29        3.3017    0.9176    5.5110 H         1 <0>         0.0999 
      61 H30        2.0711    1.8925    4.6553 H         1 <0>         0.0621 
      62 H31        2.1338   -0.7085    7.2413 H         1 <0>         0.0991 
      63 H32        0.7267    0.0271    8.0592 H         1 <0>         0.0615 
      64 H33       -0.8074   -0.7919    6.5060 H         1 <0>         0.0908 
      65 H34        0.4397   -2.0767    6.3943 H         1 <0>         0.0448 
@<TRIPOS>BOND
       1        1        2 1        
       2        1       32 1        
       3        1       33 1        
       4        1       34 1        
       5        2        3 1        
       6        2        4 1        
       7        2        5 1        
       8        3       35 1        
       9        3       36 1        
      10        3       37 1        
      11        4       38 1        
      12        4       39 1        
      13        4       40 1        
      14        5        9 1        
      15        5        6 1        
      16        6        7 2        
      17        6       13 1        
      18        7        8 1        
      19        7       41 1        
      20        8        9 2        
      21        8       10 1        
      22       10       12 1        
      23       10       11 1        
      24       10       42 1        
      25       11       12 1        
      26       11       43 1        
      27       11       44 1        
      28       12       45 1        
      29       12       46 1        
      30       13       14 2        
      31       13       15 am       
      32       15       16 1        
      33       15       47 1        
      34       16       17 1        
      35       16       48 1        
      36       16       49 1        
      37       17       18 1        
      38       17       26 1        
      39       17       50 1        
      40       18       23 ar       
      41       18       19 ar       
      42       19       20 ar       
      43       19       51 1        
      44       20       21 ar       
      45       20       52 1        
      46       21       22 ar       
      47       21       24 1        
      48       22       23 ar       
      49       22       53 1        
      50       23       54 1        
      51       24       25 1        
      52       25       55 1        
      53       25       56 1        
      54       25       57 1        
      55       26       31 1        
      56       26       27 1        
      57       27       28 1        
      58       27       58 1        
      59       27       59 1        
      60       28       29 1        
      61       28       60 1        
      62       28       61 1        
      63       29       30 1        
      64       30       31 1        
      65       30       62 1        
      66       30       63 1        
      67       31       64 1        
      68       31       65 1        

