#        1GCZ_R01_S0001_C0000_L00003_S0001_C0009_G0010_E0001.mol2
#        Tue Jun  6 14:03:44 2017
#        Descriptor:     36    35    30    11     9    15
#        Energy - RMSD - RMSD MassCentre:     -60.1332    999.9999    999.9999
#        Receptor:       1  Surface Point:     1  Conformer:     0
#        Ligand:         3  Surface Point:     1  Conformer:     9
#        BUDE Formal Charge: 0
#        ATOM Count: 58
#        Heavy ATOM Count: 30
@<TRIPOS>MOLECULE
ZINC61580633_1GCZ_R01_S0001_C0000_L00003_S0001_C0009_G0010_E0001
 58 59 0 0 0
SMALL
USER_CHARGES
@<TRIPOS>ATOM
       1 C1         4.5262   -0.1479   14.4087 C.3       1 <0>        -0.1532 
       2 C2         5.5906    0.6660   13.6785 C.3       1 <0>        -0.1224 
       3 C3         5.4148    0.4958   12.1702 C.3       1 <0>        -0.1198 
       4 C4         6.4807    1.3108   11.4390 C.3       1 <0>         0.0610 
       5 O1         6.3162    1.1516   10.0275 O.3       1 <0>        -0.3878 
       6 C5         7.2896    1.8943    9.2885 C.3       1 <0>         0.0487 
       7 C6         7.0615    1.6837    7.7925 C.3       1 <0>         0.1244 
       8 N1         5.8462    2.3990    7.3775 N.am      1 <0>        -0.7216 
       9 C7         5.4506    2.3562    6.1083 C.2       1 <0>         0.5161 
      10 O2         6.1007    1.7184    5.2818 O.2       1 <0>        -0.5151 
      11 C8         4.2022    3.0910    5.6820 C.3       1 <0>         0.0490 
      12 O3         3.0551    2.4414    6.2362 O.3       1 <0>        -0.3194 
      13 C9         2.9364    2.4037    7.5804 C.2       1 <0>         0.5417 
      14 O4         3.7927    2.9142    8.2837 O.2       1 <0>        -0.5337 
      15 C10        1.7669    1.7427    8.2012 C.2       1 <0>        -0.2559 
      16 C11        1.5455    1.6326    9.6604 C.2       1 <0>        -0.0791 
      17 C12        0.4207    0.9773    9.9563 C.2       1 <0>        -0.2585 
      18 S1        -0.4604    0.4486    8.5153 S.3       1 <0>         0.3028 
      19 C13        0.7915    1.1632    7.4883 C.2       1 <0>         0.0893 
      20 N2         0.8046    1.1393    6.1186 N.am      1 <0>        -0.6099 
      21 C14       -0.1861    0.5520    5.4534 C.2       1 <0>         0.5551 
      22 O5        -1.1147    0.0301    6.0682 O.2       1 <0>        -0.4939 
      23 C15       -0.1704    0.5271    3.9737 C.ar      1 <0>        -0.1466 
      24 C16       -1.2316   -0.1044    3.3140 C.ar      1 <0>        -0.0772 
      25 C17       -1.2360   -0.2248    1.9193 C.ar      1 <0>        -0.1241 
      26 C18       -0.1731    0.2757    1.1583 C.ar      1 <0>        -0.0446 
      27 C19        0.8632    0.9543    1.8106 C.ar      1 <0>        -0.1261 
      28 C20        0.8494    1.0982    3.2031 C.ar      1 <0>        -0.0460 
      29 C21       -0.1666    0.0810   -0.3392 C.3       1 <0>        -0.0928 
      30 C22        0.5450   -1.2256   -0.6782 C.3       1 <0>        -0.1485 
      31 H1         4.6396   -1.2004   14.1574 H         1 <0>         0.0567 
      32 H2         3.5386    0.1935   14.1061 H         1 <0>         0.0554 
      33 H3         4.6430   -0.0161   15.4823 H         1 <0>         0.0557 
      34 H4         5.4862    1.7172   13.9388 H         1 <0>         0.0632 
      35 H5         6.5788    0.3161   13.9696 H         1 <0>         0.0635 
      36 H6         5.5197   -0.5549   11.9085 H         1 <0>         0.0711 
      37 H7         4.4272    0.8464   11.8778 H         1 <0>         0.0704 
      38 H8         6.3763    2.3621   11.6993 H         1 <0>         0.0498 
      39 H9         7.4688    0.9607   11.7301 H         1 <0>         0.0505 
      40 H10        8.2871    1.5512    9.5546 H         1 <0>         0.0584 
      41 H11        7.1946    2.9523    9.5237 H         1 <0>         0.0702 
      42 H12        6.9436    0.6215    7.5890 H         1 <0>         0.0872 
      43 H13        7.9149    2.0674    7.2374 H         1 <0>         0.0805 
      44 H14        5.3116    2.9230    8.0553 H         1 <0>         0.4058 
      45 H15        4.2449    4.1176    6.0397 H         1 <0>         0.1008 
      46 H16        4.1312    3.0871    4.5964 H         1 <0>         0.0999 
      47 H17        2.2252    2.0536   10.3865 H         1 <0>         0.1557 
      48 H18        0.0913    0.8084   10.9708 H         1 <0>         0.1929 
      49 H19        1.5671    1.5679    5.6137 H         1 <0>         0.4317 
      50 H20       -2.0546   -0.5078    3.8853 H         1 <0>         0.1287 
      51 H21       -2.0631   -0.7085    1.4210 H         1 <0>         0.1326 
      52 H22        1.6703    1.3683    1.2245 H         1 <0>         0.1342 
      53 H23        1.6437    1.6817    3.6445 H         1 <0>         0.1410 
      54 H24        0.3551    0.9116   -0.8099 H         1 <0>         0.0777 
      55 H25       -1.1911    0.0420   -0.7036 H         1 <0>         0.0771 
      56 H26        0.0152   -2.0566   -0.2173 H         1 <0>         0.0623 
      57 H27        1.5649   -1.1909   -0.3008 H         1 <0>         0.0572 
      58 H28        0.5614   -1.3592   -1.7578 H         1 <0>         0.0578 
@<TRIPOS>BOND
       1        1        2 1        
       2        1       31 1        
       3        1       32 1        
       4        1       33 1        
       5        2        3 1        
       6        2       34 1        
       7        2       35 1        
       8        3        4 1        
       9        3       36 1        
      10        3       37 1        
      11        4        5 1        
      12        4       38 1        
      13        4       39 1        
      14        5        6 1        
      15        6        7 1        
      16        6       40 1        
      17        6       41 1        
      18        7        8 1        
      19        7       42 1        
      20        7       43 1        
      21        8        9 am       
      22        8       44 1        
      23        9       10 2        
      24        9       11 1        
      25       11       12 1        
      26       11       45 1        
      27       11       46 1        
      28       12       13 1        
      29       13       14 2        
      30       13       15 1        
      31       15       19 2        
      32       15       16 1        
      33       16       17 2        
      34       16       47 1        
      35       17       18 1        
      36       17       48 1        
      37       18       19 1        
      38       19       20 1        
      39       20       21 am       
      40       20       49 1        
      41       21       22 2        
      42       21       23 1        
      43       23       28 ar       
      44       23       24 ar       
      45       24       25 ar       
      46       24       50 1        
      47       25       26 ar       
      48       25       51 1        
      49       26       27 ar       
      50       26       29 1        
      51       27       28 ar       
      52       27       52 1        
      53       28       53 1        
      54       29       30 1        
      55       29       54 1        
      56       29       55 1        
      57       30       56 1        
      58       30       57 1        
      59       30       58 1        

