#        1GCZ_R01_S0001_C0000_L00008_S0001_C0031_G0010_E0001.mol2
#        Tue Jun  6 14:10:32 2017
#        Descriptor:      3    15    36     7    10    15
#        Energy - RMSD - RMSD MassCentre:     -70.3775    999.9999    999.9999
#        Receptor:       1  Surface Point:     1  Conformer:     0
#        Ligand:         8  Surface Point:     1  Conformer:    31
#        BUDE Formal Charge: 0
#        ATOM Count: 65
#        Heavy ATOM Count: 31
@<TRIPOS>MOLECULE
ZINC61400536_1GCZ_R01_S0001_C0000_L00008_S0001_C0031_G0010_E0001
 65 68 0 0 0
SMALL
USER_CHARGES
@<TRIPOS>ATOM
       1 C1        -0.7839    7.4095    8.5111 C.3       1 <0>        -0.1457 
       2 C2        -0.1462    6.1701    9.2072 C.3       1 <0>         0.1768 
       3 C3         1.1712    5.7212    8.4869 C.3       1 <0>        -0.1798 
       4 C4         0.2758    6.5693   10.6629 C.3       1 <0>        -0.1802 
       5 N1        -1.1642    5.1168    9.2982 N.pl3     1 <0>        -0.2386 
       6 C5        -1.3479    4.0733    8.5292 C.2       1 <0>        -0.0401 
       7 C6        -2.3561    3.3479    9.0317 C.2       1 <0>        -0.1820 
       8 C7        -2.7905    4.0427   10.2297 C.2       1 <0>         0.0520 
       9 N2        -2.0432    5.0584   10.3207 N.2       1 <0>        -0.2594 
      10 C8        -3.8838    3.6942   11.2027 C.3       1 <0>        -0.0741 
      11 C9        -5.2007    3.1291   10.6198 C.3       1 <0>        -0.1663 
      12 C10       -5.1594    4.5693   11.1773 C.3       1 <0>        -0.1657 
      13 C11       -0.6735    3.6438    7.2843 C.2       1 <0>         0.5920 
      14 O1         0.2126    4.3408    6.8187 O.2       1 <0>        -0.5202 
      15 N3        -1.0811    2.5238    6.6339 N.am      1 <0>        -0.7096 
      16 C12       -0.4118    2.1133    5.4054 C.3       1 <0>         0.1269 
      17 C13       -0.9987    0.8484    4.7104 C.3       1 <0>         0.1209 
      18 C14       -0.7806   -0.2806    5.7456 C.ar      1 <0>        -0.1261 
      19 C15        0.5055   -0.7689    5.9997 C.ar      1 <0>        -0.0471 
      20 C16        0.6960   -1.7813    6.9430 C.ar      1 <0>        -0.1526 
      21 C17       -0.3767   -2.3122    7.6655 C.ar      1 <0>         0.1329 
      22 C18       -1.6597   -1.8308    7.4033 C.ar      1 <0>        -0.2055 
      23 C19       -1.8601   -0.8248    6.4519 C.ar      1 <0>        -0.0791 
      24 O2        -0.1206   -3.3259    8.6094 O.3       1 <0>        -0.3169 
      25 C20        0.9348   -4.2834    8.4134 C.3       1 <0>         0.0263 
      26 N4        -0.2847    0.3959    3.4840 N.3       1 <0>        -0.5235 
      27 C21       -0.8512   -0.7240    3.0039 C.3       1 <0>         0.0085 
      28 C22       -0.2665   -1.0556    1.6077 C.3       1 <0>         0.0643 
      29 O3        -0.7665   -0.1152    0.6431 O.3       1 <0>        -0.3844 
      30 C23       -1.0522    1.1607    1.2310 C.3       1 <0>         0.0641 
      31 C24       -0.1105    1.4275    2.4336 C.3       1 <0>         0.0200 
      32 H1        -1.6843    7.7347    9.0588 H         1 <0>         0.0684 
      33 H2        -1.0649    7.1562    7.4752 H         1 <0>         0.0673 
      34 H3        -0.0633    8.2403    8.4879 H         1 <0>         0.0762 
      35 H4         0.9557    5.4134    7.4498 H         1 <0>         0.0772 
      36 H5         1.8963    6.5520    8.4722 H         1 <0>         0.1076 
      37 H6         1.6460    4.8591    8.9746 H         1 <0>         0.0533 
      38 H7         0.7403    5.7129   11.1807 H         1 <0>         0.0541 
      39 H8        -0.6064    6.8967   11.2387 H         1 <0>         0.1047 
      40 H9         1.0061    7.3955   10.6376 H         1 <0>         0.0783 
      41 H10       -2.7895    2.4287    8.6361 H         1 <0>         0.1546 
      42 H11       -3.6076    3.3063   12.1982 H         1 <0>         0.1185 
      43 H12       -5.2611    3.0280    9.5236 H         1 <0>         0.0960 
      44 H13       -5.7166    2.3641   11.2244 H         1 <0>         0.1015 
      45 H14       -5.1908    5.3875   10.4390 H         1 <0>         0.1002 
      46 H15       -5.6510    4.7483   12.1484 H         1 <0>         0.0943 
      47 H16       -1.8404    1.9877    6.9986 H         1 <0>         0.4026 
      48 H17        0.6488    1.9022    5.6347 H         1 <0>         0.0820 
      49 H18       -0.4615    2.9330    4.6671 H         1 <0>         0.0826 
      50 H19       -2.0699    1.0201    4.4993 H         1 <0>         0.0584 
      51 H20        1.3626   -0.3674    5.4670 H         1 <0>         0.1381 
      52 H21        1.6947   -2.1614    7.1380 H         1 <0>         0.1314 
      53 H22       -2.5283   -2.2178    7.9241 H         1 <0>         0.1295 
      54 H23       -2.8669   -0.4648    6.2600 H         1 <0>         0.1215 
      55 H24        1.8988   -3.7533    8.3555 H         1 <0>         0.0567 
      56 H25        0.9704   -4.9864    9.2625 H         1 <0>         0.0562 
      57 H26        0.7793   -4.8315    7.4691 H         1 <0>         0.1014 
      58 H27       -1.9443   -0.6118    2.8862 H         1 <0>         0.0471 
      59 H28       -0.6822   -1.6106    3.6388 H         1 <0>         0.0943 
      60 H29        0.8375   -1.0231    1.6441 H         1 <0>         0.0999 
      61 H30       -0.5686   -2.0673    1.2848 H         1 <0>         0.0621 
      62 H31       -0.9496    1.9676    0.4825 H         1 <0>         0.0991 
      63 H32       -2.1020    1.1475    1.5731 H         1 <0>         0.0615 
      64 H33       -0.3418    2.4271    2.8416 H         1 <0>         0.0908 
      65 H34        0.9299    1.4313    2.0611 H         1 <0>         0.0448 
@<TRIPOS>BOND
       1        1        2 1        
       2        1       32 1        
       3        1       33 1        
       4        1       34 1        
       5        2        3 1        
       6        2        4 1        
       7        2        5 1        
       8        3       35 1        
       9        3       36 1        
      10        3       37 1        
      11        4       38 1        
      12        4       39 1        
      13        4       40 1        
      14        5        9 1        
      15        5        6 1        
      16        6        7 2        
      17        6       13 1        
      18        7        8 1        
      19        7       41 1        
      20        8        9 2        
      21        8       10 1        
      22       10       12 1        
      23       10       11 1        
      24       10       42 1        
      25       11       12 1        
      26       11       43 1        
      27       11       44 1        
      28       12       45 1        
      29       12       46 1        
      30       13       14 2        
      31       13       15 am       
      32       15       16 1        
      33       15       47 1        
      34       16       17 1        
      35       16       48 1        
      36       16       49 1        
      37       17       18 1        
      38       17       26 1        
      39       17       50 1        
      40       18       23 ar       
      41       18       19 ar       
      42       19       20 ar       
      43       19       51 1        
      44       20       21 ar       
      45       20       52 1        
      46       21       22 ar       
      47       21       24 1        
      48       22       23 ar       
      49       22       53 1        
      50       23       54 1        
      51       24       25 1        
      52       25       55 1        
      53       25       56 1        
      54       25       57 1        
      55       26       31 1        
      56       26       27 1        
      57       27       28 1        
      58       27       58 1        
      59       27       59 1        
      60       28       29 1        
      61       28       60 1        
      62       28       61 1        
      63       29       30 1        
      64       30       31 1        
      65       30       62 1        
      66       30       63 1        
      67       31       64 1        
      68       31       65 1        

