#        1GCZ_R01_S0001_C0000_L00008_S0001_C0032_G0010_E0001.mol2
#        Tue Jun  6 09:57:34 2017
#        Descriptor:     36    15    22     9     9    12
#        Energy - RMSD - RMSD MassCentre:     -90.6495    999.9999    999.9999
#        Receptor:       1  Surface Point:     1  Conformer:     0
#        Ligand:         8  Surface Point:     1  Conformer:    32
#        BUDE Formal Charge: 0
#        ATOM Count: 65
#        Heavy ATOM Count: 31
@<TRIPOS>MOLECULE
ZINC61400536_1GCZ_R01_S0001_C0000_L00008_S0001_C0032_G0010_E0001
 65 68 0 0 0
SMALL
USER_CHARGES
@<TRIPOS>ATOM
       1 C1         3.1626   -1.4079    7.3876 C.3       1 <0>        -0.1457 
       2 C2         1.9726   -0.4036    7.4401 C.3       1 <0>         0.1768 
       3 C3         0.7900   -0.8657    6.5214 C.3       1 <0>        -0.1798 
       4 C4         1.3976   -0.3769    8.8980 C.3       1 <0>        -0.1802 
       5 N1         2.4839    0.9354    7.1250 N.pl3     1 <0>        -0.2386 
       6 C5         2.4483    1.5905    5.9920 C.2       1 <0>        -0.0401 
       7 C6         2.9744    2.8071    6.1884 C.2       1 <0>        -0.1820 
       8 C7         3.3393    2.8632    7.5921 C.2       1 <0>         0.0520 
       9 N2         3.0155    1.7386    8.0704 N.2       1 <0>        -0.2594 
      10 C8         3.9696    3.9793    8.3798 C.3       1 <0>        -0.0741 
      11 C9         5.0862    4.7958    7.6873 C.3       1 <0>        -0.1663 
      12 C10        5.4445    3.7969    8.8100 C.3       1 <0>        -0.1657 
      13 C11        1.9749    1.1954    4.6471 C.2       1 <0>         0.5920 
      14 O1         1.5399    0.0683    4.4787 O.2       1 <0>        -0.5202 
      15 N3         2.0854    2.0535    3.6007 N.am      1 <0>        -0.7096 
      16 C12        1.6197    1.6509    2.2791 C.3       1 <0>         0.1269 
      17 C13        0.2788    0.8582    2.2514 C.3       1 <0>         0.1209 
      18 C14        0.1334    0.4236    0.7736 C.ar      1 <0>        -0.1261 
      19 C15       -0.1695    1.3661   -0.2147 C.ar      1 <0>        -0.0471 
      20 C16       -0.2893    0.9681   -1.5483 C.ar      1 <0>        -0.1526 
      21 C17       -0.0907   -0.3621   -1.9299 C.ar      1 <0>         0.1329 
      22 C18        0.2012   -1.3023   -0.9412 C.ar      1 <0>        -0.2055 
      23 C19        0.3117   -0.9135    0.3980 C.ar      1 <0>        -0.0791 
      24 O2        -0.2171   -0.7011   -3.2912 O.3       1 <0>        -0.3169 
      25 C20       -1.1461   -0.0177   -4.1509 C.3       1 <0>         0.0263 
      26 N4        -0.9465    1.6520    2.5466 N.3       1 <0>        -0.5235 
      27 C21       -2.1183    0.7740    2.5365 C.3       1 <0>         0.0085 
      28 C22       -2.1544   -0.2374    3.7101 C.3       1 <0>         0.0643 
      29 O3        -1.3887    0.2786    4.8111 O.3       1 <0>        -0.3844 
      30 C23       -1.5580    1.6935    4.9703 C.3       1 <0>         0.0641 
      31 C24       -0.8983    2.4552    3.7918 C.3       1 <0>         0.0200 
      32 H1         3.9645   -1.0869    8.0734 H         1 <0>         0.0684 
      33 H2         3.5655   -1.4606    6.3624 H         1 <0>         0.0673 
      34 H3         2.8221   -2.4108    7.6848 H         1 <0>         0.0762 
      35 H4         1.1144   -0.9021    5.4677 H         1 <0>         0.0772 
      36 H5         0.4434   -1.8674    6.8259 H         1 <0>         0.1076 
      37 H6        -0.0667   -0.1793    6.5593 H         1 <0>         0.0533 
      38 H7         0.5452    0.3203    8.9660 H         1 <0>         0.0541 
      39 H8         2.1774   -0.0551    9.6088 H         1 <0>         0.1047 
      40 H9         1.0472   -1.3809    9.1906 H         1 <0>         0.0783 
      41 H10        3.1217    3.6049    5.4597 H         1 <0>         0.1546 
      42 H11        3.3463    4.5476    9.0914 H         1 <0>         0.1185 
      43 H12        5.3601    4.5006    6.6609 H         1 <0>         0.0960 
      44 H13        5.1304    5.8711    7.9297 H         1 <0>         0.1015 
      45 H14        5.9442    2.8637    8.5019 H         1 <0>         0.1002 
      46 H15        5.7257    4.2190    9.7895 H         1 <0>         0.0943 
      47 H16        2.4885    2.9562    3.7407 H         1 <0>         0.4026 
      48 H17        2.3912    1.0116    1.8124 H         1 <0>         0.0820 
      49 H18        1.4713    2.5476    1.6517 H         1 <0>         0.0826 
      50 H19        0.3594   -0.0065    2.9350 H         1 <0>         0.0584 
      51 H20       -0.3145    2.4106    0.0457 H         1 <0>         0.1381 
      52 H21       -0.5265    1.7005   -2.3147 H         1 <0>         0.1314 
      53 H22        0.3499   -2.3493   -1.1803 H         1 <0>         0.1295 
      54 H23        0.5372   -1.6606    1.1538 H         1 <0>         0.1215 
      55 H24       -0.8859    1.0523   -4.1880 H         1 <0>         0.0567 
      56 H25       -1.0893   -0.4291   -5.1726 H         1 <0>         0.0562 
      57 H26       -2.1712   -0.1152   -3.7556 H         1 <0>         0.1014 
      58 H27       -2.1415    0.1917    1.5975 H         1 <0>         0.0471 
      59 H28       -3.0579    1.3509    2.5842 H         1 <0>         0.0943 
      60 H29       -3.1998   -0.4208    4.0175 H         1 <0>         0.0999 
      61 H30       -1.7110   -1.2033    3.4106 H         1 <0>         0.0621 
      62 H31       -2.6301    1.9535    5.0373 H         1 <0>         0.0991 
      63 H32       -1.0782    1.9861    5.9208 H         1 <0>         0.0615 
      64 H33        0.1498    2.6736    4.0618 H         1 <0>         0.0908 
      65 H34       -1.4344    3.4121    3.6581 H         1 <0>         0.0448 
@<TRIPOS>BOND
       1        1        2 1        
       2        1       32 1        
       3        1       33 1        
       4        1       34 1        
       5        2        3 1        
       6        2        4 1        
       7        2        5 1        
       8        3       35 1        
       9        3       36 1        
      10        3       37 1        
      11        4       38 1        
      12        4       39 1        
      13        4       40 1        
      14        5        9 1        
      15        5        6 1        
      16        6        7 2        
      17        6       13 1        
      18        7        8 1        
      19        7       41 1        
      20        8        9 2        
      21        8       10 1        
      22       10       12 1        
      23       10       11 1        
      24       10       42 1        
      25       11       12 1        
      26       11       43 1        
      27       11       44 1        
      28       12       45 1        
      29       12       46 1        
      30       13       14 2        
      31       13       15 am       
      32       15       16 1        
      33       15       47 1        
      34       16       17 1        
      35       16       48 1        
      36       16       49 1        
      37       17       18 1        
      38       17       26 1        
      39       17       50 1        
      40       18       23 ar       
      41       18       19 ar       
      42       19       20 ar       
      43       19       51 1        
      44       20       21 ar       
      45       20       52 1        
      46       21       22 ar       
      47       21       24 1        
      48       22       23 ar       
      49       22       53 1        
      50       23       54 1        
      51       24       25 1        
      52       25       55 1        
      53       25       56 1        
      54       25       57 1        
      55       26       31 1        
      56       26       27 1        
      57       27       28 1        
      58       27       58 1        
      59       27       59 1        
      60       28       29 1        
      61       28       60 1        
      62       28       61 1        
      63       29       30 1        
      64       30       31 1        
      65       30       62 1        
      66       30       63 1        
      67       31       64 1        
      68       31       65 1        

