#        1GCZ_R01_S0001_C0000_L00008_S0001_C0033_G0010_E0001.mol2
#        Tue Jun  6 09:57:35 2017
#        Descriptor:      3    15    36     7    10    15
#        Energy - RMSD - RMSD MassCentre:     -72.6926    999.9999    999.9999
#        Receptor:       1  Surface Point:     1  Conformer:     0
#        Ligand:         8  Surface Point:     1  Conformer:    33
#        BUDE Formal Charge: 0
#        ATOM Count: 65
#        Heavy ATOM Count: 31
@<TRIPOS>MOLECULE
ZINC61400536_1GCZ_R01_S0001_C0000_L00008_S0001_C0033_G0010_E0001
 65 68 0 0 0
SMALL
USER_CHARGES
@<TRIPOS>ATOM
       1 C1        -0.8311    7.5229    8.4988 C.3       1 <0>        -0.1457 
       2 C2        -0.1934    6.2835    9.1949 C.3       1 <0>         0.1768 
       3 C3         1.1241    5.8346    8.4746 C.3       1 <0>        -0.1798 
       4 C4         0.2287    6.6827   10.6507 C.3       1 <0>        -0.1802 
       5 N1        -1.2113    5.2302    9.2860 N.pl3     1 <0>        -0.2386 
       6 C5        -1.3951    4.1868    8.5169 C.2       1 <0>        -0.0401 
       7 C6        -2.4033    3.4613    9.0194 C.2       1 <0>        -0.1820 
       8 C7        -2.8377    4.1561   10.2174 C.2       1 <0>         0.0520 
       9 N2        -2.0903    5.1718   10.3085 N.2       1 <0>        -0.2594 
      10 C8        -3.9309    3.8076   11.1905 C.3       1 <0>        -0.0741 
      11 C9        -4.2187    2.3063   11.4284 C.3       1 <0>        -0.1663 
      12 C10       -5.2132    3.1626   10.6131 C.3       1 <0>        -0.1657 
      13 C11       -0.7206    3.7572    7.2721 C.2       1 <0>         0.5920 
      14 O1         0.1655    4.4543    6.8064 O.2       1 <0>        -0.5202 
      15 N3        -1.1283    2.6372    6.6217 N.am      1 <0>        -0.7096 
      16 C12       -0.4589    2.2267    5.3932 C.3       1 <0>         0.1269 
      17 C13       -1.0459    0.9618    4.6982 C.3       1 <0>         0.1209 
      18 C14       -0.8278   -0.1672    5.7333 C.ar      1 <0>        -0.1261 
      19 C15        0.4583   -0.6555    5.9875 C.ar      1 <0>        -0.0471 
      20 C16        0.6489   -1.6679    6.9307 C.ar      1 <0>        -0.1526 
      21 C17       -0.4239   -2.1988    7.6533 C.ar      1 <0>         0.1329 
      22 C18       -1.7069   -1.7174    7.3911 C.ar      1 <0>        -0.2055 
      23 C19       -1.9072   -0.7114    6.4397 C.ar      1 <0>        -0.0791 
      24 O2        -0.1677   -3.2125    8.5971 O.3       1 <0>        -0.3169 
      25 C20        0.8877   -4.1700    8.4012 C.3       1 <0>         0.0263 
      26 N4        -0.3318    0.5093    3.4717 N.3       1 <0>        -0.5235 
      27 C21       -0.8983   -0.6106    2.9917 C.3       1 <0>         0.0085 
      28 C22       -0.3136   -0.9422    1.5955 C.3       1 <0>         0.0643 
      29 O3        -0.8136   -0.0018    0.6308 O.3       1 <0>        -0.3844 
      30 C23       -1.0993    1.2742    1.2187 C.3       1 <0>         0.0641 
      31 C24       -0.1577    1.5410    2.4213 C.3       1 <0>         0.0200 
      32 H1        -1.7314    7.8481    9.0466 H         1 <0>         0.0684 
      33 H2        -1.1120    7.2696    7.4630 H         1 <0>         0.0673 
      34 H3        -0.1105    8.3537    8.4757 H         1 <0>         0.0762 
      35 H4         0.9086    5.5268    7.4375 H         1 <0>         0.0772 
      36 H5         1.8492    6.6654    8.4599 H         1 <0>         0.1076 
      37 H6         1.5989    4.9725    8.9624 H         1 <0>         0.0533 
      38 H7         0.6932    5.8263   11.1685 H         1 <0>         0.0541 
      39 H8        -0.6536    7.0101   11.2264 H         1 <0>         0.1047 
      40 H9         0.9589    7.5089   10.6253 H         1 <0>         0.0783 
      41 H10       -2.8366    2.5421    8.6239 H         1 <0>         0.1546 
      42 H11       -4.0940    4.4603   12.0653 H         1 <0>         0.1185 
      43 H12       -3.6116    1.5831   10.8594 H         1 <0>         0.0960 
      44 H13       -4.5144    2.0194   12.4517 H         1 <0>         0.1015 
      45 H14       -5.2400    2.9889    9.5247 H         1 <0>         0.1002 
      46 H15       -6.1631    3.4355   11.1030 H         1 <0>         0.0943 
      47 H16       -1.8875    2.1011    6.9863 H         1 <0>         0.4026 
      48 H17        0.6017    2.0156    5.6224 H         1 <0>         0.0820 
      49 H18       -0.5087    3.0464    4.6548 H         1 <0>         0.0826 
      50 H19       -2.1171    1.1335    4.4870 H         1 <0>         0.0584 
      51 H20        1.3155   -0.2540    5.4548 H         1 <0>         0.1381 
      52 H21        1.6476   -2.0480    7.1258 H         1 <0>         0.1314 
      53 H22       -2.5754   -2.1044    7.9119 H         1 <0>         0.1295 
      54 H23       -2.9141   -0.3514    6.2477 H         1 <0>         0.1215 
      55 H24        1.8517   -3.6399    8.3433 H         1 <0>         0.0567 
      56 H25        0.9233   -4.8730    9.2502 H         1 <0>         0.0562 
      57 H26        0.7322   -4.7181    7.4568 H         1 <0>         0.1014 
      58 H27       -1.9914   -0.4984    2.8740 H         1 <0>         0.0471 
      59 H28       -0.7294   -1.4972    3.6266 H         1 <0>         0.0943 
      60 H29        0.7904   -0.9097    1.6319 H         1 <0>         0.0999 
      61 H30       -0.6158   -1.9539    1.2725 H         1 <0>         0.0621 
      62 H31       -0.9967    2.0810    0.4702 H         1 <0>         0.0991 
      63 H32       -2.1491    1.2609    1.5609 H         1 <0>         0.0615 
      64 H33       -0.3889    2.5405    2.8294 H         1 <0>         0.0908 
      65 H34        0.8828    1.5447    2.0488 H         1 <0>         0.0448 
@<TRIPOS>BOND
       1        1        2 1        
       2        1       32 1        
       3        1       33 1        
       4        1       34 1        
       5        2        3 1        
       6        2        4 1        
       7        2        5 1        
       8        3       35 1        
       9        3       36 1        
      10        3       37 1        
      11        4       38 1        
      12        4       39 1        
      13        4       40 1        
      14        5        9 1        
      15        5        6 1        
      16        6        7 2        
      17        6       13 1        
      18        7        8 1        
      19        7       41 1        
      20        8        9 2        
      21        8       10 1        
      22       10       12 1        
      23       10       11 1        
      24       10       42 1        
      25       11       12 1        
      26       11       43 1        
      27       11       44 1        
      28       12       45 1        
      29       12       46 1        
      30       13       14 2        
      31       13       15 am       
      32       15       16 1        
      33       15       47 1        
      34       16       17 1        
      35       16       48 1        
      36       16       49 1        
      37       17       18 1        
      38       17       26 1        
      39       17       50 1        
      40       18       23 ar       
      41       18       19 ar       
      42       19       20 ar       
      43       19       51 1        
      44       20       21 ar       
      45       20       52 1        
      46       21       22 ar       
      47       21       24 1        
      48       22       23 ar       
      49       22       53 1        
      50       23       54 1        
      51       24       25 1        
      52       25       55 1        
      53       25       56 1        
      54       25       57 1        
      55       26       31 1        
      56       26       27 1        
      57       27       28 1        
      58       27       58 1        
      59       27       59 1        
      60       28       29 1        
      61       28       60 1        
      62       28       61 1        
      63       29       30 1        
      64       30       31 1        
      65       30       62 1        
      66       30       63 1        
      67       31       64 1        
      68       31       65 1        

