#        1GCZ_R01_S0001_C0000_L00008_S0001_C0033_G0010_E0001.mol2
#        Tue Jun  6 14:10:37 2017
#        Descriptor:      5    14    27    10     9    14
#        Energy - RMSD - RMSD MassCentre:     -74.6197    999.9999    999.9999
#        Receptor:       1  Surface Point:     1  Conformer:     0
#        Ligand:         8  Surface Point:     1  Conformer:    33
#        BUDE Formal Charge: 0
#        ATOM Count: 65
#        Heavy ATOM Count: 31
@<TRIPOS>MOLECULE
ZINC61400536_1GCZ_R01_S0001_C0000_L00008_S0001_C0033_G0010_E0001
 65 68 0 0 0
SMALL
USER_CHARGES
@<TRIPOS>ATOM
       1 C1         7.6626    1.8411    5.9358 C.3       1 <0>        -0.1457 
       2 C2         6.8132    0.8555    6.7928 C.3       1 <0>         0.1768 
       3 C3         6.4033   -0.4142    5.9706 C.3       1 <0>        -0.1798 
       4 C4         7.6918    0.3319    7.9805 C.3       1 <0>        -0.1802 
       5 N1         5.6764    1.5939    7.3551 N.pl3     1 <0>        -0.2386 
       6 C5         4.4366    1.6497    6.9380 C.2       1 <0>        -0.0401 
       7 C6         3.7314    2.3931    7.8012 C.2       1 <0>        -0.1820 
       8 C7         4.6648    2.7975    8.8365 C.2       1 <0>         0.0520 
       9 N2         5.7740    2.2865    8.5094 N.2       1 <0>        -0.2594 
      10 C8         4.4385    3.6400   10.0622 C.3       1 <0>        -0.0741 
      11 C9         3.0491    3.5545   10.7370 C.3       1 <0>        -0.1663 
      12 C10        3.4422    4.8170    9.9380 C.3       1 <0>        -0.1657 
      13 C11        3.7796    1.0785    5.7417 C.2       1 <0>         0.5920 
      14 O1         4.4482    0.4415    4.9448 O.2       1 <0>        -0.5202 
      15 N3         2.4648    1.3169    5.5008 N.am      1 <0>        -0.7096 
      16 C12        1.8296    0.7525    4.3160 C.3       1 <0>         0.1269 
      17 C13        0.3348    1.1385    4.1063 C.3       1 <0>         0.1209 
      18 C14       -0.3822    0.5347    5.3372 C.ar      1 <0>        -0.1261 
      19 C15       -0.5459   -0.8499    5.4522 C.ar      1 <0>        -0.0471 
      20 C16       -1.1852   -1.3885    6.5711 C.ar      1 <0>        -0.1526 
      21 C17       -1.6536   -0.5708    7.6040 C.ar      1 <0>         0.1329 
      22 C18       -1.4983    0.8104    7.4825 C.ar      1 <0>        -0.2055 
      23 C19       -0.8690    1.3583    6.3595 C.ar      1 <0>        -0.0791 
      24 O2        -2.2827   -1.1732    8.7109 O.3       1 <0>        -0.3169 
      25 C20       -3.0600   -2.3751    8.5690 C.3       1 <0>         0.0263 
      26 N4        -0.3316    0.5214    2.9256 N.3       1 <0>        -0.5235 
      27 C21       -1.6230    0.8894    2.8769 C.3       1 <0>         0.0085 
      28 C22       -2.2482    0.4476    1.5296 C.3       1 <0>         0.0643 
      29 O3        -1.7358    1.2721    0.4702 O.3       1 <0>        -0.3844 
      30 C23       -0.4115    1.7462    0.7476 C.3       1 <0>         0.0641 
      31 C24        0.3565    0.7273    1.6286 C.3       1 <0>         0.0200 
      32 H1         7.9766    2.7051    6.5453 H         1 <0>         0.0684 
      33 H2         7.0697    2.2018    5.0788 H         1 <0>         0.0673 
      34 H3         8.5597    1.3314    5.5545 H         1 <0>         0.0762 
      35 H4         5.7701   -0.1285    5.1139 H         1 <0>         0.0772 
      36 H5         7.3037   -0.9295    5.5964 H         1 <0>         0.1076 
      37 H6         5.8189   -1.1304    6.5639 H         1 <0>         0.0533 
      38 H7         7.1198   -0.3773    8.6027 H         1 <0>         0.0541 
      39 H8         8.0191    1.1750    8.6123 H         1 <0>         0.1047 
      40 H9         8.5855   -0.1879    7.5965 H         1 <0>         0.0783 
      41 H10        2.6764    2.6648    7.7535 H         1 <0>         0.1546 
      42 H11        5.2831    3.8183   10.7498 H         1 <0>         0.1185 
      43 H12        2.3048    2.8890   10.2694 H         1 <0>         0.0960 
      44 H13        3.0320    3.6335   11.8371 H         1 <0>         0.1015 
      45 H14        2.9520    4.9572    8.9604 H         1 <0>         0.1002 
      46 H15        3.6813    5.7255   10.5162 H         1 <0>         0.0943 
      47 H16        1.9392    1.8810    6.1352 H         1 <0>         0.4026 
      48 H17        1.8806   -0.3499    4.3793 H         1 <0>         0.0820 
      49 H18        2.3727    1.0842    3.4134 H         1 <0>         0.0826 
      50 H19        0.2504    2.2399    4.0725 H         1 <0>         0.0584 
      51 H20       -0.1798   -1.5145    4.6750 H         1 <0>         0.1381 
      52 H21       -1.3138   -2.4636    6.6585 H         1 <0>         0.1314 
      53 H22       -1.8562    1.4909    8.2468 H         1 <0>         0.1295 
      54 H23       -0.7597    2.4363    6.2819 H         1 <0>         0.1215 
      55 H24       -2.4143   -3.1812    8.1857 H         1 <0>         0.0567 
      56 H25       -3.4631   -2.6830    9.5484 H         1 <0>         0.0562 
      57 H26       -3.8814   -2.2132    7.8510 H         1 <0>         0.1014 
      58 H27       -1.7394    1.9858    2.9514 H         1 <0>         0.0471 
      59 H28       -2.2392    0.4424    3.6758 H         1 <0>         0.0943 
      60 H29       -2.0181   -0.6162    1.3383 H         1 <0>         0.0999 
      61 H30       -3.3462    0.5621    1.5490 H         1 <0>         0.0621 
      62 H31        0.1426    1.9293   -0.1912 H         1 <0>         0.0991 
      63 H32       -0.5021    2.7088    1.2808 H         1 <0>         0.0615 
      64 H33        1.3771    1.1131    1.7977 H         1 <0>         0.0908 
      65 H34        0.4276   -0.2242    1.0710 H         1 <0>         0.0448 
@<TRIPOS>BOND
       1        1        2 1        
       2        1       32 1        
       3        1       33 1        
       4        1       34 1        
       5        2        3 1        
       6        2        4 1        
       7        2        5 1        
       8        3       35 1        
       9        3       36 1        
      10        3       37 1        
      11        4       38 1        
      12        4       39 1        
      13        4       40 1        
      14        5        9 1        
      15        5        6 1        
      16        6        7 2        
      17        6       13 1        
      18        7        8 1        
      19        7       41 1        
      20        8        9 2        
      21        8       10 1        
      22       10       12 1        
      23       10       11 1        
      24       10       42 1        
      25       11       12 1        
      26       11       43 1        
      27       11       44 1        
      28       12       45 1        
      29       12       46 1        
      30       13       14 2        
      31       13       15 am       
      32       15       16 1        
      33       15       47 1        
      34       16       17 1        
      35       16       48 1        
      36       16       49 1        
      37       17       18 1        
      38       17       26 1        
      39       17       50 1        
      40       18       23 ar       
      41       18       19 ar       
      42       19       20 ar       
      43       19       51 1        
      44       20       21 ar       
      45       20       52 1        
      46       21       22 ar       
      47       21       24 1        
      48       22       23 ar       
      49       22       53 1        
      50       23       54 1        
      51       24       25 1        
      52       25       55 1        
      53       25       56 1        
      54       25       57 1        
      55       26       31 1        
      56       26       27 1        
      57       27       28 1        
      58       27       58 1        
      59       27       59 1        
      60       28       29 1        
      61       28       60 1        
      62       28       61 1        
      63       29       30 1        
      64       30       31 1        
      65       30       62 1        
      66       30       63 1        
      67       31       64 1        
      68       31       65 1        

