#        1GCZ_R01_S0001_C0000_L00008_S0001_C0034_G0010_E0001.mol2
#        Tue Jun  6 09:57:36 2017
#        Descriptor:     36    15    22     9     9    12
#        Energy - RMSD - RMSD MassCentre:     -95.4444    999.9999    999.9999
#        Receptor:       1  Surface Point:     1  Conformer:     0
#        Ligand:         8  Surface Point:     1  Conformer:    34
#        BUDE Formal Charge: 0
#        ATOM Count: 65
#        Heavy ATOM Count: 31
@<TRIPOS>MOLECULE
ZINC61400536_1GCZ_R01_S0001_C0000_L00008_S0001_C0034_G0010_E0001
 65 68 0 0 0
SMALL
USER_CHARGES
@<TRIPOS>ATOM
       1 C1         3.2493   -1.4856    7.4284 C.3       1 <0>        -0.1457 
       2 C2         2.0593   -0.4814    7.4809 C.3       1 <0>         0.1768 
       3 C3         0.8767   -0.9434    6.5621 C.3       1 <0>        -0.1798 
       4 C4         1.4843   -0.4546    8.9387 C.3       1 <0>        -0.1802 
       5 N1         2.5706    0.8577    7.1658 N.pl3     1 <0>        -0.2386 
       6 C5         2.5350    1.5128    6.0328 C.2       1 <0>        -0.0401 
       7 C6         3.0611    2.7293    6.2292 C.2       1 <0>        -0.1820 
       8 C7         3.4260    2.7854    7.6329 C.2       1 <0>         0.0520 
       9 N2         3.1022    1.6609    8.1112 N.2       1 <0>        -0.2594 
      10 C8         4.0563    3.9016    8.4206 C.3       1 <0>        -0.0741 
      11 C9         3.7118    5.3502    8.0013 C.3       1 <0>        -0.1663 
      12 C10        5.1112    4.7711    7.6964 C.3       1 <0>        -0.1657 
      13 C11        2.0616    1.1176    4.6879 C.2       1 <0>         0.5920 
      14 O1         1.6266   -0.0095    4.5195 O.2       1 <0>        -0.5202 
      15 N3         2.1721    1.9758    3.6415 N.am      1 <0>        -0.7096 
      16 C12        1.7064    1.5731    2.3199 C.3       1 <0>         0.1269 
      17 C13        0.3654    0.7804    2.2922 C.3       1 <0>         0.1209 
      18 C14        0.2200    0.3458    0.8144 C.ar      1 <0>        -0.1261 
      19 C15       -0.0828    1.2884   -0.1740 C.ar      1 <0>        -0.0471 
      20 C16       -0.2026    0.8903   -1.5075 C.ar      1 <0>        -0.1526 
      21 C17       -0.0041   -0.4399   -1.8891 C.ar      1 <0>         0.1329 
      22 C18        0.2879   -1.3801   -0.9005 C.ar      1 <0>        -0.2055 
      23 C19        0.3984   -0.9913    0.4388 C.ar      1 <0>        -0.0791 
      24 O2        -0.1304   -0.7789   -3.2505 O.3       1 <0>        -0.3169 
      25 C20       -1.0594   -0.0954   -4.1101 C.3       1 <0>         0.0263 
      26 N4        -0.8598    1.5743    2.5873 N.3       1 <0>        -0.5235 
      27 C21       -2.0316    0.6962    2.5773 C.3       1 <0>         0.0085 
      28 C22       -2.0677   -0.3151    3.7509 C.3       1 <0>         0.0643 
      29 O3        -1.3020    0.2008    4.8519 O.3       1 <0>        -0.3844 
      30 C23       -1.4713    1.6157    5.0111 C.3       1 <0>         0.0641 
      31 C24       -0.8116    2.3774    3.8326 C.3       1 <0>         0.0200 
      32 H1         4.0512   -1.1647    8.1142 H         1 <0>         0.0684 
      33 H2         3.6522   -1.5384    6.4032 H         1 <0>         0.0673 
      34 H3         2.9088   -2.4885    7.7255 H         1 <0>         0.0762 
      35 H4         1.2011   -0.9799    5.5085 H         1 <0>         0.0772 
      36 H5         0.5301   -1.9452    6.8666 H         1 <0>         0.1076 
      37 H6         0.0200   -0.2570    6.6001 H         1 <0>         0.0533 
      38 H7         0.6319    0.2426    9.0067 H         1 <0>         0.0541 
      39 H8         2.2641   -0.1329    9.6496 H         1 <0>         0.1047 
      40 H9         1.1339   -1.4587    9.2313 H         1 <0>         0.0783 
      41 H10        3.2084    3.5271    5.5005 H         1 <0>         0.1546 
      42 H11        4.2369    3.7565    9.4996 H         1 <0>         0.1185 
      43 H12        3.0337    5.4753    7.1411 H         1 <0>         0.0960 
      44 H13        3.6340    6.0914    8.8147 H         1 <0>         0.1015 
      45 H14        5.3265    4.5241    6.6437 H         1 <0>         0.1002 
      46 H15        5.9523    5.1352    8.3103 H         1 <0>         0.0943 
      47 H16        2.5752    2.8784    3.7815 H         1 <0>         0.4026 
      48 H17        2.4779    0.9338    1.8532 H         1 <0>         0.0820 
      49 H18        1.5580    2.4698    1.6925 H         1 <0>         0.0826 
      50 H19        0.4461   -0.0843    2.9757 H         1 <0>         0.0584 
      51 H20       -0.2278    2.3328    0.0865 H         1 <0>         0.1381 
      52 H21       -0.4398    1.6227   -2.2739 H         1 <0>         0.1314 
      53 H22        0.4365   -2.4271   -1.1395 H         1 <0>         0.1295 
      54 H23        0.6239   -1.7384    1.1946 H         1 <0>         0.1215 
      55 H24       -0.7992    0.9745   -4.1472 H         1 <0>         0.0567 
      56 H25       -1.0026   -0.5069   -5.1319 H         1 <0>         0.0562 
      57 H26       -2.0845   -0.1930   -3.7148 H         1 <0>         0.1014 
      58 H27       -2.0548    0.1139    1.6383 H         1 <0>         0.0471 
      59 H28       -2.9712    1.2732    2.6250 H         1 <0>         0.0943 
      60 H29       -3.1131   -0.4986    4.0582 H         1 <0>         0.0999 
      61 H30       -1.6243   -1.2810    3.4514 H         1 <0>         0.0621 
      62 H31       -2.5434    1.8757    5.0781 H         1 <0>         0.0991 
      63 H32       -0.9915    1.9083    5.9615 H         1 <0>         0.0615 
      64 H33        0.2365    2.5958    4.1026 H         1 <0>         0.0908 
      65 H34       -1.3477    3.3344    3.6989 H         1 <0>         0.0448 
@<TRIPOS>BOND
       1        1        2 1        
       2        1       32 1        
       3        1       33 1        
       4        1       34 1        
       5        2        3 1        
       6        2        4 1        
       7        2        5 1        
       8        3       35 1        
       9        3       36 1        
      10        3       37 1        
      11        4       38 1        
      12        4       39 1        
      13        4       40 1        
      14        5        9 1        
      15        5        6 1        
      16        6        7 2        
      17        6       13 1        
      18        7        8 1        
      19        7       41 1        
      20        8        9 2        
      21        8       10 1        
      22       10       12 1        
      23       10       11 1        
      24       10       42 1        
      25       11       12 1        
      26       11       43 1        
      27       11       44 1        
      28       12       45 1        
      29       12       46 1        
      30       13       14 2        
      31       13       15 am       
      32       15       16 1        
      33       15       47 1        
      34       16       17 1        
      35       16       48 1        
      36       16       49 1        
      37       17       18 1        
      38       17       26 1        
      39       17       50 1        
      40       18       23 ar       
      41       18       19 ar       
      42       19       20 ar       
      43       19       51 1        
      44       20       21 ar       
      45       20       52 1        
      46       21       22 ar       
      47       21       24 1        
      48       22       23 ar       
      49       22       53 1        
      50       23       54 1        
      51       24       25 1        
      52       25       55 1        
      53       25       56 1        
      54       25       57 1        
      55       26       31 1        
      56       26       27 1        
      57       27       28 1        
      58       27       58 1        
      59       27       59 1        
      60       28       29 1        
      61       28       60 1        
      62       28       61 1        
      63       29       30 1        
      64       30       31 1        
      65       30       62 1        
      66       30       63 1        
      67       31       64 1        
      68       31       65 1        

