#        1GCZ_R01_S0001_C0000_L00008_S0001_C0034_G0010_E0001.mol2
#        Tue Jun  6 14:10:39 2017
#        Descriptor:     36    14    22     8     8    13
#        Energy - RMSD - RMSD MassCentre:     -85.4233    999.9999    999.9999
#        Receptor:       1  Surface Point:     1  Conformer:     0
#        Ligand:         8  Surface Point:     1  Conformer:    34
#        BUDE Formal Charge: 0
#        ATOM Count: 65
#        Heavy ATOM Count: 31
@<TRIPOS>MOLECULE
ZINC61400536_1GCZ_R01_S0001_C0000_L00008_S0001_C0034_G0010_E0001
 65 68 0 0 0
SMALL
USER_CHARGES
@<TRIPOS>ATOM
       1 C1         1.7918   -2.8695    8.3980 C.3       1 <0>        -0.1457 
       2 C2         0.5979   -1.8686    8.4035 C.3       1 <0>         0.1768 
       3 C3        -0.4485   -2.2163    7.2899 C.3       1 <0>        -0.1798 
       4 C4        -0.1661   -2.0004    9.7658 C.3       1 <0>        -0.1802 
       5 N1         1.1365   -0.5066    8.3107 N.pl3     1 <0>        -0.2386 
       6 C5         1.2471    0.2712    7.2633 C.2       1 <0>        -0.0401 
       7 C6         1.7332    1.4542    7.6625 C.2       1 <0>        -0.1820 
       8 C7         1.9078    1.3506    9.0997 C.2       1 <0>         0.0520 
       9 N2         1.5316    0.1821    9.4021 N.2       1 <0>        -0.2594 
      10 C8         2.4193    2.3671   10.0839 C.3       1 <0>        -0.0741 
      11 C9         2.1228    3.8560    9.7868 C.3       1 <0>        -0.1663 
      12 C10        3.5546    3.3041    9.6081 C.3       1 <0>        -0.1657 
      13 C11        0.9598    0.0321    5.8318 C.2       1 <0>         0.5920 
      14 O1         0.5595   -1.0658    5.4823 O.2       1 <0>        -0.5202 
      15 N3         1.2020    1.0009    4.9118 N.am      1 <0>        -0.7096 
      16 C12        0.9193    0.7518    3.5033 C.3       1 <0>         0.1269 
      17 C13       -0.4001   -0.0228    3.2092 C.3       1 <0>         0.1209 
      18 C14       -0.3444   -0.2887    1.6860 C.ar      1 <0>        -0.1261 
      19 C15       -0.5201    0.7605    0.7776 C.ar      1 <0>        -0.0471 
      20 C16       -0.4584    0.5148   -0.5961 C.ar      1 <0>        -0.1526 
      21 C17       -0.2010   -0.7660   -1.0939 C.ar      1 <0>         0.1329 
      22 C18       -0.0361   -1.8128   -0.1864 C.ar      1 <0>        -0.2055 
      23 C19       -0.1076   -1.5768    1.1906 C.ar      1 <0>        -0.0791 
      24 O2        -0.1425   -0.9500   -2.4892 O.3       1 <0>        -0.3169 
      25 C20       -0.9540   -0.1679   -3.3831 C.3       1 <0>         0.0263 
      26 N4        -1.6596    0.7423    3.4255 N.3       1 <0>        -0.5235 
      27 C21       -2.8131   -0.1204    3.1617 C.3       1 <0>         0.0085 
      28 C22       -2.9973   -1.2561    4.1998 C.3       1 <0>         0.0643 
      29 O3        -2.3888   -0.8720    5.4435 O.3       1 <0>        -0.3844 
      30 C23       -2.5884    0.5175    5.7357 C.3       1 <0>         0.0641 
      31 C24       -1.7835    1.4010    4.7479 C.3       1 <0>         0.0200 
      32 H1         2.4929   -2.6331    9.2159 H         1 <0>         0.0684 
      33 H2         2.3279   -2.8105    7.4362 H         1 <0>         0.0673 
      34 H3         1.4223   -3.8968    8.5335 H         1 <0>         0.0762 
      35 H4         0.0134   -2.1373    6.2913 H         1 <0>         0.0772 
      36 H5        -0.8250   -3.2431    7.4318 H         1 <0>         0.1076 
      37 H6        -1.3078   -1.5320    7.2899 H         1 <0>         0.0533 
      38 H7        -1.0252   -1.3088    9.7972 H         1 <0>         0.0541 
      39 H8         0.5098   -1.7658   10.6055 H         1 <0>         0.1047 
      40 H9        -0.5448   -3.0282    9.8952 H         1 <0>         0.0783 
      41 H10        1.9702    2.3272    7.0535 H         1 <0>         0.1546 
      42 H11        2.4558    2.1012   11.1544 H         1 <0>         0.1185 
      43 H12        1.5642    4.0814    8.8634 H         1 <0>         0.0960 
      44 H13        1.9320    4.5023   10.6602 H         1 <0>         0.1015 
      45 H14        3.9099    3.1746    8.5724 H         1 <0>         0.1002 
      46 H15        4.3038    3.5911   10.3652 H         1 <0>         0.0943 
      47 H16        1.5762    1.8792    5.2040 H         1 <0>         0.4026 
      48 H17        1.7508    0.1628    3.0750 H         1 <0>         0.0820 
      49 H18        0.8490    1.7140    2.9658 H         1 <0>         0.0826 
      50 H19       -0.4046   -0.9590    3.7966 H         1 <0>         0.0584 
      51 H20       -0.7063    1.7704    1.1313 H         1 <0>         0.1381 
      52 H21       -0.5971    1.3298   -1.3006 H         1 <0>         0.1314 
      53 H22        0.1509   -2.8277   -0.5189 H         1 <0>         0.1295 
      54 H23        0.0209   -2.4053    1.8815 H         1 <0>         0.1215 
      55 H24       -0.6992    0.8975   -3.2656 H         1 <0>         0.0567 
      56 H25       -0.7587   -0.4631   -4.4277 H         1 <0>         0.0562 
      57 H26       -2.0218   -0.3013   -3.1411 H         1 <0>         0.1014 
      58 H27       -2.7067   -0.5940    2.1689 H         1 <0>         0.0471 
      59 H28       -3.7550    0.4546    3.1481 H         1 <0>         0.0943 
      60 H29       -4.0730   -1.4649    4.3430 H         1 <0>         0.0999 
      61 H30       -2.5109   -2.1859    3.8560 H         1 <0>         0.0621 
      62 H31       -3.6618    0.7764    5.6881 H         1 <0>         0.0991 
      63 H32       -2.2415    0.6985    6.7682 H         1 <0>         0.0615 
      64 H33       -0.7823    1.5800    5.1776 H         1 <0>         0.0908 
      65 H34       -2.3042    2.3709    4.6517 H         1 <0>         0.0448 
@<TRIPOS>BOND
       1        1        2 1        
       2        1       32 1        
       3        1       33 1        
       4        1       34 1        
       5        2        3 1        
       6        2        4 1        
       7        2        5 1        
       8        3       35 1        
       9        3       36 1        
      10        3       37 1        
      11        4       38 1        
      12        4       39 1        
      13        4       40 1        
      14        5        9 1        
      15        5        6 1        
      16        6        7 2        
      17        6       13 1        
      18        7        8 1        
      19        7       41 1        
      20        8        9 2        
      21        8       10 1        
      22       10       12 1        
      23       10       11 1        
      24       10       42 1        
      25       11       12 1        
      26       11       43 1        
      27       11       44 1        
      28       12       45 1        
      29       12       46 1        
      30       13       14 2        
      31       13       15 am       
      32       15       16 1        
      33       15       47 1        
      34       16       17 1        
      35       16       48 1        
      36       16       49 1        
      37       17       18 1        
      38       17       26 1        
      39       17       50 1        
      40       18       23 ar       
      41       18       19 ar       
      42       19       20 ar       
      43       19       51 1        
      44       20       21 ar       
      45       20       52 1        
      46       21       22 ar       
      47       21       24 1        
      48       22       23 ar       
      49       22       53 1        
      50       23       54 1        
      51       24       25 1        
      52       25       55 1        
      53       25       56 1        
      54       25       57 1        
      55       26       31 1        
      56       26       27 1        
      57       27       28 1        
      58       27       58 1        
      59       27       59 1        
      60       28       29 1        
      61       28       60 1        
      62       28       61 1        
      63       29       30 1        
      64       30       31 1        
      65       30       62 1        
      66       30       63 1        
      67       31       64 1        
      68       31       65 1        

