#        1GCZ_R01_S0001_C0000_L00008_S0001_C0035_G0010_E0001.mol2
#        Tue Jun  6 09:57:37 2017
#        Descriptor:      2    14    36     7     9    14
#        Energy - RMSD - RMSD MassCentre:     -80.6638    999.9999    999.9999
#        Receptor:       1  Surface Point:     1  Conformer:     0
#        Ligand:         8  Surface Point:     1  Conformer:    35
#        BUDE Formal Charge: 0
#        ATOM Count: 65
#        Heavy ATOM Count: 31
@<TRIPOS>MOLECULE
ZINC61400536_1GCZ_R01_S0001_C0000_L00008_S0001_C0035_G0010_E0001
 65 68 0 0 0
SMALL
USER_CHARGES
@<TRIPOS>ATOM
       1 C1        -1.4796    5.2888    8.3175 C.3       1 <0>        -0.1457 
       2 C2        -0.8780    3.9082    8.7167 C.3       1 <0>         0.1768 
       3 C3         0.2439    3.4600    7.7184 C.3       1 <0>        -0.1798 
       4 C4        -0.1794    4.0458   10.1130 C.3       1 <0>        -0.1802 
       5 N1        -1.9781    2.9456    8.8480 N.pl3     1 <0>        -0.2386 
       6 C5        -2.4016    2.0496    7.9926 C.2       1 <0>        -0.0401 
       7 C6        -3.3876    1.3472    8.5668 C.2       1 <0>        -0.1820 
       8 C7        -3.5378    1.8890    9.9049 C.2       1 <0>         0.0520 
       9 N2        -2.6771    2.8106    9.9946 N.2       1 <0>        -0.2594 
      10 C8        -4.4873    1.4943   11.0032 C.3       1 <0>        -0.0741 
      11 C9        -3.9002    0.7169   12.2050 C.3       1 <0>        -0.1663 
      12 C10       -4.7865   -0.0141   11.1720 C.3       1 <0>        -0.1657 
      13 C11       -1.9943    1.7552    6.6010 C.2       1 <0>         0.5920 
      14 O1        -1.1251    2.4348    6.0808 O.2       1 <0>        -0.5202 
      15 N3        -2.6262    0.7854    5.8912 N.am      1 <0>        -0.7096 
      16 C12       -2.2191    0.5078    4.5190 C.3       1 <0>         0.1269 
      17 C13       -0.6834    0.5230    4.2572 C.3       1 <0>         0.1209 
      18 C14       -0.5657    0.3772    2.7214 C.ar      1 <0>        -0.1261 
      19 C15       -0.8636   -0.8409    2.1013 C.ar      1 <0>        -0.0471 
      20 C16       -0.7649   -0.9623    0.7133 C.ar      1 <0>        -0.1526 
      21 C17       -0.3918    0.1223   -0.0860 C.ar      1 <0>         0.1329 
      22 C18       -0.0853    1.3334    0.5353 C.ar      1 <0>        -0.2055 
      23 C19       -0.1709    1.4598    1.9259 C.ar      1 <0>        -0.0791 
      24 O2        -0.3179   -0.0593   -1.4809 O.3       1 <0>        -0.3169 
      25 C20        0.0710   -1.3205   -2.0530 C.3       1 <0>         0.0263 
      26 N4         0.0784   -0.6278    4.8175 N.3       1 <0>        -0.5235 
      27 C21        1.3775   -0.5287    4.4883 C.3       1 <0>         0.0085 
      28 C22        2.2021   -1.5854    5.2660 C.3       1 <0>         0.0643 
      29 O3         2.2872   -1.2038    6.6488 O.3       1 <0>        -0.3844 
      30 C23        1.1440   -0.4491    7.0719 C.3       1 <0>         0.0641 
      31 C24       -0.1128   -0.8705    6.2675 C.3       1 <0>         0.0200 
      32 H1        -2.2350    5.6049    9.0562 H         1 <0>         0.0684 
      33 H2        -1.9543    5.2195    7.3245 H         1 <0>         0.0673 
      34 H3        -0.6845    6.0479    8.2761 H         1 <0>         0.0762 
      35 H4        -0.1730    3.3316    6.7053 H         1 <0>         0.0772 
      36 H5         1.0447    4.2175    7.6845 H         1 <0>         0.1076 
      37 H6         0.6935    2.4965    7.9940 H         1 <0>         0.0533 
      38 H7         0.2657    3.0842   10.4204 H         1 <0>         0.0541 
      39 H8        -0.9123    4.3583   10.8761 H         1 <0>         0.1047 
      40 H9         0.6242    4.7998   10.0671 H         1 <0>         0.0783 
      41 H10       -3.9801    0.5391    8.1367 H         1 <0>         0.1546 
      42 H11       -5.3304    2.1640   11.2451 H         1 <0>         0.1185 
      43 H12       -2.8220    0.4889   12.1762 H         1 <0>         0.0960 
      44 H13       -4.3423    0.9328   13.1924 H         1 <0>         0.1015 
      45 H14       -4.2755   -0.7064   10.4826 H         1 <0>         0.1002 
      46 H15       -5.8106   -0.2793   11.4843 H         1 <0>         0.0943 
      47 H16       -3.3699    0.2686    6.3116 H         1 <0>         0.4026 
      48 H17       -2.6750    1.2650    3.8552 H         1 <0>         0.0820 
      49 H18       -2.5817   -0.4923    4.2222 H         1 <0>         0.0826 
      50 H19       -0.2677    1.4812    4.6187 H         1 <0>         0.0584 
      51 H20       -1.1716   -1.6990    2.6916 H         1 <0>         0.1381 
      52 H21       -0.9945   -1.9092    0.2330 H         1 <0>         0.1314 
      53 H22        0.2236    2.2017   -0.0357 H         1 <0>         0.1295 
      54 H23        0.0741    2.4103    2.3915 H         1 <0>         0.1215 
      55 H24       -0.6472   -2.0963   -1.7426 H         1 <0>         0.0567 
      56 H25        0.0638   -1.2549   -3.1540 H         1 <0>         0.0562 
      57 H26        1.0734   -1.6074   -1.6933 H         1 <0>         0.1014 
      58 H27        1.7895    0.4647    4.7425 H         1 <0>         0.0471 
      59 H28        1.5745   -0.6973    3.4156 H         1 <0>         0.0943 
      60 H29        1.7299   -2.5795    5.1667 H         1 <0>         0.0999 
      61 H30        3.2298   -1.6533    4.8681 H         1 <0>         0.0621 
      62 H31        0.9649   -0.5849    8.1541 H         1 <0>         0.0991 
      63 H32        1.3607    0.6192    6.8958 H         1 <0>         0.0615 
      64 H33       -0.9748   -0.2888    6.6388 H         1 <0>         0.0908 
      65 H34       -0.3012   -1.9420    6.4608 H         1 <0>         0.0448 
@<TRIPOS>BOND
       1        1        2 1        
       2        1       32 1        
       3        1       33 1        
       4        1       34 1        
       5        2        3 1        
       6        2        4 1        
       7        2        5 1        
       8        3       35 1        
       9        3       36 1        
      10        3       37 1        
      11        4       38 1        
      12        4       39 1        
      13        4       40 1        
      14        5        9 1        
      15        5        6 1        
      16        6        7 2        
      17        6       13 1        
      18        7        8 1        
      19        7       41 1        
      20        8        9 2        
      21        8       10 1        
      22       10       12 1        
      23       10       11 1        
      24       10       42 1        
      25       11       12 1        
      26       11       43 1        
      27       11       44 1        
      28       12       45 1        
      29       12       46 1        
      30       13       14 2        
      31       13       15 am       
      32       15       16 1        
      33       15       47 1        
      34       16       17 1        
      35       16       48 1        
      36       16       49 1        
      37       17       18 1        
      38       17       26 1        
      39       17       50 1        
      40       18       23 ar       
      41       18       19 ar       
      42       19       20 ar       
      43       19       51 1        
      44       20       21 ar       
      45       20       52 1        
      46       21       22 ar       
      47       21       24 1        
      48       22       23 ar       
      49       22       53 1        
      50       23       54 1        
      51       24       25 1        
      52       25       55 1        
      53       25       56 1        
      54       25       57 1        
      55       26       31 1        
      56       26       27 1        
      57       27       28 1        
      58       27       58 1        
      59       27       59 1        
      60       28       29 1        
      61       28       60 1        
      62       28       61 1        
      63       29       30 1        
      64       30       31 1        
      65       30       62 1        
      66       30       63 1        
      67       31       64 1        
      68       31       65 1        

