#        1GCZ_R01_S0001_C0000_L00008_S0001_C0035_G0010_E0001.mol2
#        Tue Jun  6 14:10:41 2017
#        Descriptor:      2    14    36     8     9    13
#        Energy - RMSD - RMSD MassCentre:     -72.8355    999.9999    999.9999
#        Receptor:       1  Surface Point:     1  Conformer:     0
#        Ligand:         8  Surface Point:     1  Conformer:    35
#        BUDE Formal Charge: 0
#        ATOM Count: 65
#        Heavy ATOM Count: 31
@<TRIPOS>MOLECULE
ZINC61400536_1GCZ_R01_S0001_C0000_L00008_S0001_C0035_G0010_E0001
 65 68 0 0 0
SMALL
USER_CHARGES
@<TRIPOS>ATOM
       1 C1        -0.4796    5.2888    7.3175 C.3       1 <0>        -0.1457 
       2 C2         0.1220    3.9082    7.7167 C.3       1 <0>         0.1768 
       3 C3         1.2439    3.4600    6.7184 C.3       1 <0>        -0.1798 
       4 C4         0.8206    4.0458    9.1130 C.3       1 <0>        -0.1802 
       5 N1        -0.9781    2.9456    7.8480 N.pl3     1 <0>        -0.2386 
       6 C5        -1.4016    2.0496    6.9926 C.2       1 <0>        -0.0401 
       7 C6        -2.3876    1.3472    7.5668 C.2       1 <0>        -0.1820 
       8 C7        -2.5378    1.8890    8.9049 C.2       1 <0>         0.0520 
       9 N2        -1.6771    2.8106    8.9946 N.2       1 <0>        -0.2594 
      10 C8        -3.4873    1.4943   10.0032 C.3       1 <0>        -0.0741 
      11 C9        -2.9002    0.7169   11.2050 C.3       1 <0>        -0.1663 
      12 C10       -3.7865   -0.0141   10.1720 C.3       1 <0>        -0.1657 
      13 C11       -0.9943    1.7552    5.6010 C.2       1 <0>         0.5920 
      14 O1        -0.1251    2.4348    5.0808 O.2       1 <0>        -0.5202 
      15 N3        -1.6262    0.7854    4.8912 N.am      1 <0>        -0.7096 
      16 C12       -1.2191    0.5078    3.5190 C.3       1 <0>         0.1269 
      17 C13        0.3166    0.5230    3.2572 C.3       1 <0>         0.1209 
      18 C14        0.4343    0.3772    1.7214 C.ar      1 <0>        -0.1261 
      19 C15        0.1364   -0.8409    1.1013 C.ar      1 <0>        -0.0471 
      20 C16        0.2351   -0.9623   -0.2867 C.ar      1 <0>        -0.1526 
      21 C17        0.6082    0.1223   -1.0860 C.ar      1 <0>         0.1329 
      22 C18        0.9147    1.3334   -0.4647 C.ar      1 <0>        -0.2055 
      23 C19        0.8291    1.4598    0.9259 C.ar      1 <0>        -0.0791 
      24 O2         0.6821   -0.0593   -2.4809 O.3       1 <0>        -0.3169 
      25 C20        1.0710   -1.3205   -3.0530 C.3       1 <0>         0.0263 
      26 N4         1.0784   -0.6278    3.8175 N.3       1 <0>        -0.5235 
      27 C21        2.3775   -0.5287    3.4883 C.3       1 <0>         0.0085 
      28 C22        3.2021   -1.5854    4.2660 C.3       1 <0>         0.0643 
      29 O3         3.2872   -1.2038    5.6488 O.3       1 <0>        -0.3844 
      30 C23        2.1440   -0.4491    6.0719 C.3       1 <0>         0.0641 
      31 C24        0.8872   -0.8705    5.2675 C.3       1 <0>         0.0200 
      32 H1        -1.2350    5.6049    8.0562 H         1 <0>         0.0684 
      33 H2        -0.9543    5.2195    6.3245 H         1 <0>         0.0673 
      34 H3         0.3155    6.0479    7.2761 H         1 <0>         0.0762 
      35 H4         0.8270    3.3316    5.7053 H         1 <0>         0.0772 
      36 H5         2.0447    4.2175    6.6845 H         1 <0>         0.1076 
      37 H6         1.6935    2.4965    6.9940 H         1 <0>         0.0533 
      38 H7         1.2657    3.0842    9.4204 H         1 <0>         0.0541 
      39 H8         0.0877    4.3583    9.8761 H         1 <0>         0.1047 
      40 H9         1.6242    4.7998    9.0671 H         1 <0>         0.0783 
      41 H10       -2.9801    0.5391    7.1367 H         1 <0>         0.1546 
      42 H11       -4.3304    2.1640   10.2451 H         1 <0>         0.1185 
      43 H12       -1.8220    0.4889   11.1762 H         1 <0>         0.0960 
      44 H13       -3.3423    0.9328   12.1924 H         1 <0>         0.1015 
      45 H14       -3.2755   -0.7064    9.4826 H         1 <0>         0.1002 
      46 H15       -4.8106   -0.2793   10.4843 H         1 <0>         0.0943 
      47 H16       -2.3699    0.2686    5.3116 H         1 <0>         0.4026 
      48 H17       -1.6750    1.2650    2.8552 H         1 <0>         0.0820 
      49 H18       -1.5817   -0.4923    3.2222 H         1 <0>         0.0826 
      50 H19        0.7323    1.4812    3.6187 H         1 <0>         0.0584 
      51 H20       -0.1716   -1.6990    1.6916 H         1 <0>         0.1381 
      52 H21        0.0055   -1.9092   -0.7670 H         1 <0>         0.1314 
      53 H22        1.2236    2.2017   -1.0357 H         1 <0>         0.1295 
      54 H23        1.0741    2.4103    1.3915 H         1 <0>         0.1215 
      55 H24        0.3528   -2.0963   -2.7426 H         1 <0>         0.0567 
      56 H25        1.0638   -1.2549   -4.1540 H         1 <0>         0.0562 
      57 H26        2.0734   -1.6074   -2.6933 H         1 <0>         0.1014 
      58 H27        2.7895    0.4647    3.7425 H         1 <0>         0.0471 
      59 H28        2.5745   -0.6973    2.4156 H         1 <0>         0.0943 
      60 H29        2.7299   -2.5795    4.1667 H         1 <0>         0.0999 
      61 H30        4.2298   -1.6533    3.8681 H         1 <0>         0.0621 
      62 H31        1.9649   -0.5849    7.1541 H         1 <0>         0.0991 
      63 H32        2.3607    0.6192    5.8958 H         1 <0>         0.0615 
      64 H33        0.0252   -0.2888    5.6388 H         1 <0>         0.0908 
      65 H34        0.6988   -1.9420    5.4608 H         1 <0>         0.0448 
@<TRIPOS>BOND
       1        1        2 1        
       2        1       32 1        
       3        1       33 1        
       4        1       34 1        
       5        2        3 1        
       6        2        4 1        
       7        2        5 1        
       8        3       35 1        
       9        3       36 1        
      10        3       37 1        
      11        4       38 1        
      12        4       39 1        
      13        4       40 1        
      14        5        9 1        
      15        5        6 1        
      16        6        7 2        
      17        6       13 1        
      18        7        8 1        
      19        7       41 1        
      20        8        9 2        
      21        8       10 1        
      22       10       12 1        
      23       10       11 1        
      24       10       42 1        
      25       11       12 1        
      26       11       43 1        
      27       11       44 1        
      28       12       45 1        
      29       12       46 1        
      30       13       14 2        
      31       13       15 am       
      32       15       16 1        
      33       15       47 1        
      34       16       17 1        
      35       16       48 1        
      36       16       49 1        
      37       17       18 1        
      38       17       26 1        
      39       17       50 1        
      40       18       23 ar       
      41       18       19 ar       
      42       19       20 ar       
      43       19       51 1        
      44       20       21 ar       
      45       20       52 1        
      46       21       22 ar       
      47       21       24 1        
      48       22       23 ar       
      49       22       53 1        
      50       23       54 1        
      51       24       25 1        
      52       25       55 1        
      53       25       56 1        
      54       25       57 1        
      55       26       31 1        
      56       26       27 1        
      57       27       28 1        
      58       27       58 1        
      59       27       59 1        
      60       28       29 1        
      61       28       60 1        
      62       28       61 1        
      63       29       30 1        
      64       30       31 1        
      65       30       62 1        
      66       30       63 1        
      67       31       64 1        
      68       31       65 1        

