#        1GCZ_R01_S0001_C0000_L00003_S0001_C0010_G0010_E0001.mol2
#        Tue Jun  6 09:54:44 2017
#        Descriptor:      7     6    35    13     8    14
#        Energy - RMSD - RMSD MassCentre:     -54.2038    999.9999    999.9999
#        Receptor:       1  Surface Point:     1  Conformer:     0
#        Ligand:         3  Surface Point:     1  Conformer:    10
#        BUDE Formal Charge: 0
#        ATOM Count: 58
#        Heavy ATOM Count: 30
@<TRIPOS>MOLECULE
ZINC61580633_1GCZ_R01_S0001_C0000_L00003_S0001_C0010_G0010_E0001
 58 59 0 0 0
SMALL
USER_CHARGES
@<TRIPOS>ATOM
       1 C1         1.6110    5.0760    9.3232 C.3       1 <0>        -0.1532 
       2 C2         2.7803    5.4411    8.4130 C.3       1 <0>        -0.1224 
       3 C3         3.3077    4.1791    7.7319 C.3       1 <0>        -0.1198 
       4 C4         2.1980    3.5562    6.8860 C.3       1 <0>         0.0610 
       5 O1         2.6916    2.3752    6.2486 O.3       1 <0>        -0.3878 
       6 C5         1.6932    1.7469    5.4402 C.3       1 <0>         0.0487 
       7 C6         2.2801    0.4956    4.7887 C.3       1 <0>         0.1244 
       8 N1         2.4580   -0.5489    5.8077 N.am      1 <0>        -0.7216 
       9 C7         1.3970   -1.1704    6.3144 C.2       1 <0>         0.5161 
      10 O2         0.2672   -0.8721    5.9311 O.2       1 <0>        -0.5151 
      11 C8         1.5798   -2.2433    7.3612 C.3       1 <0>         0.0490 
      12 O3         2.1775   -3.3959    6.7619 O.3       1 <0>        -0.3194 
      13 C9         3.4174   -3.2688    6.2433 C.2       1 <0>         0.5417 
      14 O4         3.9937   -2.1947    6.2943 O.2       1 <0>        -0.5337 
      15 C10        4.0780   -4.4331    5.6125 C.2       1 <0>        -0.2559 
      16 C11        3.4765   -5.7815    5.5093 C.2       1 <0>        -0.0791 
      17 C12        4.2867   -6.6553    4.9074 C.2       1 <0>        -0.2585 
      18 S1         5.8249   -5.9321    4.4140 S.3       1 <0>         0.3028 
      19 C13        5.3059   -4.3761    5.0790 C.2       1 <0>         0.0893 
      20 N2         6.0481   -3.2246    5.0781 N.am      1 <0>        -0.6099 
      21 C14        7.2629   -3.2158    4.5368 C.2       1 <0>         0.5551 
      22 O5         7.7203   -4.2422    4.0365 O.2       1 <0>        -0.4939 
      23 C15        8.0634   -1.9710    4.5366 C.ar      1 <0>        -0.1466 
      24 C16        9.3382   -2.0075    3.9589 C.ar      1 <0>        -0.0772 
      25 C17       10.1712   -0.8829    3.9938 C.ar      1 <0>        -0.1241 
      26 C18        9.7482    0.2971    4.6166 C.ar      1 <0>        -0.0446 
      27 C19        8.4542    0.3534    5.1481 C.ar      1 <0>        -0.1261 
      28 C20        7.6135   -0.7642    5.0853 C.ar      1 <0>        -0.0460 
      29 C21       10.6849    1.4788    4.6982 C.3       1 <0>        -0.0928 
      30 C22       11.4970    1.3949    5.9874 C.3       1 <0>        -0.1485 
      31 H1         1.9504    4.3793   10.0866 H         1 <0>         0.0567 
      32 H2         0.8237    4.6125    8.7326 H         1 <0>         0.0554 
      33 H3         1.2269    5.9765    9.7978 H         1 <0>         0.0557 
      34 H4         2.4450    6.1476    7.6566 H         1 <0>         0.0632 
      35 H5         3.5742    5.8920    9.0047 H         1 <0>         0.0635 
      36 H6         4.1493    4.4362    7.0924 H         1 <0>         0.0711 
      37 H7         3.6302    3.4661    8.4878 H         1 <0>         0.0704 
      38 H8         1.3559    3.2979    7.5247 H         1 <0>         0.0498 
      39 H9         1.8752    4.2681    6.1292 H         1 <0>         0.0505 
      40 H10        1.3644    2.4375    4.6667 H         1 <0>         0.0584 
      41 H11        0.8454    1.4674    6.0621 H         1 <0>         0.0702 
      42 H12        3.2437    0.7354    4.3441 H         1 <0>         0.0872 
      43 H13        1.6030    0.1364    4.0166 H         1 <0>         0.0805 
      44 H14        3.3854   -0.7947    6.1232 H         1 <0>         0.4058 
      45 H15        2.2256   -1.8714    8.1538 H         1 <0>         0.1008 
      46 H16        0.6116   -2.5130    7.7778 H         1 <0>         0.0999 
      47 H17        2.4861   -6.0075    5.8759 H         1 <0>         0.1557 
      48 H18        4.0124   -7.6856    4.7357 H         1 <0>         0.1929 
      49 H19        5.6726   -2.3818    5.4888 H         1 <0>         0.4317 
      50 H20        9.6868   -2.9130    3.4847 H         1 <0>         0.1287 
      51 H21       11.1501   -0.9209    3.5393 H         1 <0>         0.1326 
      52 H22        8.1129    1.2715    5.6030 H         1 <0>         0.1342 
      53 H23        6.6071   -0.6434    5.4581 H         1 <0>         0.1410 
      54 H24       10.1065    2.4003    4.6925 H         1 <0>         0.0777 
      55 H25       11.3578    1.4671    3.8434 H         1 <0>         0.0771 
      56 H26       12.0845    0.4792    5.9863 H         1 <0>         0.0623 
      57 H27       10.8222    1.3925    6.8409 H         1 <0>         0.0572 
      58 H28       12.1623    2.2533    6.0526 H         1 <0>         0.0578 
@<TRIPOS>BOND
       1        1        2 1        
       2        1       31 1        
       3        1       32 1        
       4        1       33 1        
       5        2        3 1        
       6        2       34 1        
       7        2       35 1        
       8        3        4 1        
       9        3       36 1        
      10        3       37 1        
      11        4        5 1        
      12        4       38 1        
      13        4       39 1        
      14        5        6 1        
      15        6        7 1        
      16        6       40 1        
      17        6       41 1        
      18        7        8 1        
      19        7       42 1        
      20        7       43 1        
      21        8        9 am       
      22        8       44 1        
      23        9       10 2        
      24        9       11 1        
      25       11       12 1        
      26       11       45 1        
      27       11       46 1        
      28       12       13 1        
      29       13       14 2        
      30       13       15 1        
      31       15       19 2        
      32       15       16 1        
      33       16       17 2        
      34       16       47 1        
      35       17       18 1        
      36       17       48 1        
      37       18       19 1        
      38       19       20 1        
      39       20       21 am       
      40       20       49 1        
      41       21       22 2        
      42       21       23 1        
      43       23       28 ar       
      44       23       24 ar       
      45       24       25 ar       
      46       24       50 1        
      47       25       26 ar       
      48       25       51 1        
      49       26       27 ar       
      50       26       29 1        
      51       27       28 ar       
      52       27       52 1        
      53       28       53 1        
      54       29       30 1        
      55       29       54 1        
      56       29       55 1        
      57       30       56 1        
      58       30       57 1        
      59       30       58 1        

