#        1GCZ_R01_S0001_C0000_L00009_S0001_C0000_G0010_E0001.mol2
#        Tue Jun  6 09:57:38 2017
#        Descriptor:      8    18     7    14     7    14
#        Energy - RMSD - RMSD MassCentre:     -56.7681    999.9999    999.9999
#        Receptor:       1  Surface Point:     1  Conformer:     0
#        Ligand:         9  Surface Point:     1  Conformer:     0
#        BUDE Formal Charge: 0
#        ATOM Count: 41
#        Heavy ATOM Count: 25
@<TRIPOS>MOLECULE
ZINC61352350_1GCZ_R01_S0001_C0000_L00009_S0001_C0000_G0010_E0001
 41 41 0 0 0
SMALL
USER_CHARGES
@<TRIPOS>ATOM
       1 C1        10.1193    2.1704    3.6862 C.3       1 <0>        -0.1654 
       2 C2        10.3541    2.0628    5.1943 C.3       1 <0>         0.1681 
       3 C3        11.3307    0.9199    5.4781 C.3       1 <0>        -0.1654 
       4 C4        10.9415    3.3765    5.7138 C.3       1 <0>        -0.1575 
       5 N1         9.0812    1.7964    5.8688 N.am      1 <0>        -0.7174 
       6 C5         8.3790    0.6859    5.5687 C.2       1 <0>         0.5123 
       7 O1         8.8008   -0.0928    4.7400 O.2       1 <0>        -0.5302 
       8 C6         7.0696    0.4118    6.2626 C.3       1 <0>         0.1008 
       9 N2         6.5072   -0.8461    5.7650 N.am      1 <0>        -0.7137 
      10 C7         5.3313   -1.2955    6.2463 C.2       1 <0>         0.5216 
      11 O2         4.7387   -0.6586    7.0914 O.2       1 <0>        -0.5149 
      12 C8         4.7527   -2.5895    5.7345 C.3       1 <0>         0.0504 
      13 O3         3.5111   -2.8494    6.3925 O.3       1 <0>        -0.3193 
      14 C9         2.8595   -3.9768    6.0462 C.2       1 <0>         0.5173 
      15 O4         3.3326   -4.7190    5.2085 O.2       1 <0>        -0.4724 
      16 C10        1.5725   -4.3099    6.6839 C.ar      1 <0>        -0.1184 
      17 C11        1.0229   -3.4550    7.6440 C.ar      1 <0>        -0.0438 
      18 C12       -0.1812   -3.7709    8.2375 C.ar      1 <0>         0.0822 
      19 C13       -0.8491   -4.9366    7.8844 C.ar      1 <0>         0.1048 
      20 C14       -0.3106   -5.7896    6.9338 C.ar      1 <0>         0.0533 
      21 C15        0.8937   -5.4798    6.3263 C.ar      1 <0>         0.1585 
      22 F1         1.4156   -6.3081    5.3954 F         1 <0>        -0.0849 
      23 F2        -0.9653   -6.9219    6.5952 F         1 <0>        -0.0975 
      24 F3        -2.0281   -5.2404    8.4702 F         1 <0>        -0.0955 
      25 F4        -0.7123   -2.9448    9.1654 F         1 <0>        -0.1036 
      26 H1         9.7009    1.2345    3.3159 H         1 <0>         0.0780 
      27 H2         9.4236    2.9847    3.4840 H         1 <0>         0.0552 
      28 H3        11.0664    2.3687    3.1843 H         1 <0>         0.0657 
      29 H4        12.2778    1.1181    4.9763 H         1 <0>         0.0657 
      30 H5        11.4981    0.8433    6.5525 H         1 <0>         0.0552 
      31 H6        10.9123   -0.0161    5.1079 H         1 <0>         0.0780 
      32 H7        10.2457    4.1908    5.5117 H         1 <0>         0.0637 
      33 H8        11.1087    3.2999    6.7882 H         1 <0>         0.0637 
      34 H9        11.8885    3.5748    5.2120 H         1 <0>         0.0763 
      35 H10        8.7438    2.4193    6.5315 H         1 <0>         0.4037 
      36 H11        7.2369    0.3353    7.3369 H         1 <0>         0.1033 
      37 H12        6.3738    1.2261    6.0603 H         1 <0>         0.1034 
      38 H13        6.9811   -1.3555    5.0892 H         1 <0>         0.4159 
      39 H14        4.5855   -2.5128    4.6601 H         1 <0>         0.1087 
      40 H15        5.4485   -3.4038    5.9368 H         1 <0>         0.1087 
      41 H16        1.5408   -2.5484    7.9207 H         1 <0>         0.1854 
@<TRIPOS>BOND
       1        1        2 1        
       2        1       26 1        
       3        1       27 1        
       4        1       28 1        
       5        2        3 1        
       6        2        4 1        
       7        2        5 1        
       8        3       29 1        
       9        3       30 1        
      10        3       31 1        
      11        4       32 1        
      12        4       33 1        
      13        4       34 1        
      14        5        6 am       
      15        5       35 1        
      16        6        7 2        
      17        6        8 1        
      18        8        9 1        
      19        8       36 1        
      20        8       37 1        
      21        9       10 am       
      22        9       38 1        
      23       10       11 2        
      24       10       12 1        
      25       12       13 1        
      26       12       39 1        
      27       12       40 1        
      28       13       14 1        
      29       14       15 2        
      30       14       16 1        
      31       16       21 ar       
      32       16       17 ar       
      33       17       18 ar       
      34       17       41 1        
      35       18       19 ar       
      36       18       25 1        
      37       19       20 ar       
      38       19       24 1        
      39       20       21 ar       
      40       20       23 1        
      41       21       22 1        

