#        1GCZ_R01_S0001_C0000_L00009_S0001_C0000_G0010_E0001.mol2
#        Tue Jun  6 14:10:43 2017
#        Descriptor:     20     5    28     7     9    10
#        Energy - RMSD - RMSD MassCentre:     -71.7116    999.9999    999.9999
#        Receptor:       1  Surface Point:     1  Conformer:     0
#        Ligand:         9  Surface Point:     1  Conformer:     0
#        BUDE Formal Charge: 0
#        ATOM Count: 41
#        Heavy ATOM Count: 25
@<TRIPOS>MOLECULE
ZINC61352350_1GCZ_R01_S0001_C0000_L00009_S0001_C0000_G0010_E0001
 41 41 0 0 0
SMALL
USER_CHARGES
@<TRIPOS>ATOM
       1 C1        -1.6162    0.9784   -3.6563 C.3       1 <0>        -0.1654 
       2 C2        -0.2715    1.6151   -3.2990 C.3       1 <0>         0.1681 
       3 C3         0.8294    0.5550   -3.3694 C.3       1 <0>        -0.1654 
       4 C4         0.0392    2.7397   -4.2887 C.3       1 <0>        -0.1575 
       5 N1        -0.3360    2.1629   -1.9418 N.am      1 <0>        -0.7174 
       6 C5        -0.5989    1.3506   -0.8990 C.2       1 <0>         0.5123 
       7 O1        -0.7823    0.1661   -1.0841 O.2       1 <0>        -0.5302 
       8 C6        -0.6651    1.9141    0.4972 C.3       1 <0>         0.1008 
       9 N2        -0.9627    0.8372    1.4448 N.am      1 <0>        -0.7137 
      10 C7        -1.0702    1.1081    2.7606 C.2       1 <0>         0.5216 
      11 O2        -0.9205    2.2434    3.1602 O.2       1 <0>        -0.5149 
      12 C8        -1.3763    0.0004    3.7355 C.3       1 <0>         0.0504 
      13 O3        -1.4391    0.5347    5.0593 O.3       1 <0>        -0.3193 
      14 C9        -1.7061   -0.3313    6.0565 C.2       1 <0>         0.5173 
      15 O4        -1.8807   -1.5079    5.8088 O.2       1 <0>        -0.4724 
      16 C10       -1.7861    0.1490    7.4483 C.ar      1 <0>        -0.1184 
      17 C11       -1.5913    1.5033    7.7357 C.ar      1 <0>        -0.0438 
      18 C12       -1.6673    1.9476    9.0391 C.ar      1 <0>         0.0822 
      19 C13       -1.9363    1.0530   10.0671 C.ar      1 <0>         0.1048 
      20 C14       -2.1302   -0.2913    9.7904 C.ar      1 <0>         0.0533 
      21 C15       -2.0631   -0.7479    8.4857 C.ar      1 <0>         0.1585 
      22 F1        -2.2581   -2.0570    8.2153 F         1 <0>        -0.0849 
      23 F2        -2.3912   -1.1561   10.7951 F         1 <0>        -0.0975 
      24 F3        -2.0088    1.4949   11.3418 F         1 <0>        -0.0955 
      25 F4        -1.4790    3.2563    9.3169 F         1 <0>        -0.1036 
      26 H1        -1.8376    0.1772   -2.9513 H         1 <0>         0.0780 
      27 H2        -2.4005    1.7336   -3.6062 H         1 <0>         0.0552 
      28 H3        -1.5683    0.5708   -4.6661 H         1 <0>         0.0657 
      29 H4         0.8774    0.1475   -4.3792 H         1 <0>         0.0657 
      30 H5         1.7874    1.0086   -3.1149 H         1 <0>         0.0552 
      31 H6         0.6080   -0.2462   -2.6643 H         1 <0>         0.0780 
      32 H7        -0.7451    3.4949   -4.2385 H         1 <0>         0.0637 
      33 H8         0.9971    3.1933   -4.0341 H         1 <0>         0.0637 
      34 H9         0.0871    2.3321   -5.2985 H         1 <0>         0.0763 
      35 H10       -0.1894    3.1103   -1.7937 H         1 <0>         0.4037 
      36 H11        0.2927    2.3677    0.7516 H         1 <0>         0.1033 
      37 H12       -1.4495    2.6693    0.5473 H         1 <0>         0.1034 
      38 H13       -1.0824   -0.0707    1.1252 H         1 <0>         0.4159 
      39 H14       -2.3342   -0.4532    3.4809 H         1 <0>         0.1087 
      40 H15       -0.5919   -0.7548    3.6853 H         1 <0>         0.1087 
      41 H16       -1.3813    2.2006    6.9381 H         1 <0>         0.1854 
@<TRIPOS>BOND
       1        1        2 1        
       2        1       26 1        
       3        1       27 1        
       4        1       28 1        
       5        2        3 1        
       6        2        4 1        
       7        2        5 1        
       8        3       29 1        
       9        3       30 1        
      10        3       31 1        
      11        4       32 1        
      12        4       33 1        
      13        4       34 1        
      14        5        6 am       
      15        5       35 1        
      16        6        7 2        
      17        6        8 1        
      18        8        9 1        
      19        8       36 1        
      20        8       37 1        
      21        9       10 am       
      22        9       38 1        
      23       10       11 2        
      24       10       12 1        
      25       12       13 1        
      26       12       39 1        
      27       12       40 1        
      28       13       14 1        
      29       14       15 2        
      30       14       16 1        
      31       16       21 ar       
      32       16       17 ar       
      33       17       18 ar       
      34       17       41 1        
      35       18       19 ar       
      36       18       25 1        
      37       19       20 ar       
      38       19       24 1        
      39       20       21 ar       
      40       20       23 1        
      41       21       22 1        

