#        1GCZ_R01_S0001_C0000_L00009_S0001_C0001_G0010_E0001.mol2
#        Tue Jun  6 09:57:38 2017
#        Descriptor:      3    35    20     8     7    13
#        Energy - RMSD - RMSD MassCentre:     -56.4259    999.9999    999.9999
#        Receptor:       1  Surface Point:     1  Conformer:     0
#        Ligand:         9  Surface Point:     1  Conformer:     1
#        BUDE Formal Charge: 0
#        ATOM Count: 41
#        Heavy ATOM Count: 25
@<TRIPOS>MOLECULE
ZINC61352350_1GCZ_R01_S0001_C0000_L00009_S0001_C0001_G0010_E0001
 41 41 0 0 0
SMALL
USER_CHARGES
@<TRIPOS>ATOM
       1 C1         1.6414    1.7156    4.4089 C.3       1 <0>        -0.1654 
       2 C2         0.8348    0.9157    3.3901 C.3       1 <0>         0.1681 
       3 C3         1.4227   -0.4867    3.2625 C.3       1 <0>        -0.1654 
       4 C4         0.8878    1.6157    2.0353 C.3       1 <0>        -0.1575 
       5 N1        -0.5623    0.8214    3.8376 N.am      1 <0>        -0.7174 
       6 C5        -1.4544    0.1648    3.1017 C.2       1 <0>         0.5123 
       7 O1        -1.1103   -0.3640    2.0459 O.2       1 <0>        -0.5302 
       8 C6        -2.8890    0.0690    3.5628 C.3       1 <0>         0.1008 
       9 N2        -2.9588   -0.7594    4.7750 N.am      1 <0>        -0.7137 
      10 C7        -2.6242   -0.2419    5.9537 C.2       1 <0>         0.5216 
      11 O2        -2.2566    0.9295    6.0285 O.2       1 <0>        -0.5149 
      12 C8        -2.6959   -1.0928    7.1990 C.3       1 <0>         0.0504 
      13 O3        -1.7753   -2.1811    7.0853 O.3       1 <0>        -0.3193 
      14 C9        -0.4599   -1.8910    6.9958 C.2       1 <0>         0.5173 
      15 O4        -0.0893   -0.7288    7.0133 O.2       1 <0>        -0.4724 
      16 C10        0.5318   -2.9831    6.8765 C.ar      1 <0>        -0.1184 
      17 C11        1.8929   -2.6692    6.7845 C.ar      1 <0>        -0.0438 
      18 C12        2.8477   -3.6868    6.6709 C.ar      1 <0>         0.0822 
      19 C13        2.4479   -5.0248    6.6488 C.ar      1 <0>         0.1048 
      20 C14        1.0873   -5.3415    6.7407 C.ar      1 <0>         0.0533 
      21 C15        0.1320   -4.3245    6.8543 C.ar      1 <0>         0.1585 
      22 F1        -1.1731   -4.6586    6.9412 F         1 <0>        -0.0849 
      23 F2         0.6951   -6.6331    6.7198 F         1 <0>        -0.0975 
      24 F3         3.3671   -6.0076    6.5395 F         1 <0>        -0.0955 
      25 F4         4.1560   -3.3652    6.5833 F         1 <0>        -0.1036 
      26 H1         1.6131    1.2090    5.3714 H         1 <0>         0.0780 
      27 H2         2.6724    1.7967    4.0712 H         1 <0>         0.0552 
      28 H3         1.2127    2.7105    4.5094 H         1 <0>         0.0657 
      29 H4         0.8545   -1.0518    2.5266 H         1 <0>         0.0657 
      30 H5         1.3715   -0.9897    4.2257 H         1 <0>         0.0552 
      31 H6         2.4607   -0.4164    2.9439 H         1 <0>         0.0780 
      32 H7         0.4798    2.6197    2.1303 H         1 <0>         0.0637 
      33 H8         1.9206    1.6734    1.6979 H         1 <0>         0.0637 
      34 H9         0.3006    1.0518    1.3133 H         1 <0>         0.0763 
      35 H10       -0.8449    1.2557    4.7047 H         1 <0>         0.4037 
      36 H11       -3.2663    1.0656    3.7815 H         1 <0>         0.1033 
      37 H12       -3.4919   -0.3836    2.7783 H         1 <0>         0.1034 
      38 H13       -3.2608   -1.7211    4.7125 H         1 <0>         0.4159 
      39 H14       -2.4384   -0.4880    8.0660 H         1 <0>         0.1087 
      40 H15       -3.7056   -1.4814    7.3143 H         1 <0>         0.1087 
      41 H16        2.2286   -1.6429    6.7993 H         1 <0>         0.1854 
@<TRIPOS>BOND
       1        1        2 1        
       2        1       26 1        
       3        1       27 1        
       4        1       28 1        
       5        2        3 1        
       6        2        4 1        
       7        2        5 1        
       8        3       29 1        
       9        3       30 1        
      10        3       31 1        
      11        4       32 1        
      12        4       33 1        
      13        4       34 1        
      14        5        6 am       
      15        5       35 1        
      16        6        7 2        
      17        6        8 1        
      18        8        9 1        
      19        8       36 1        
      20        8       37 1        
      21        9       10 am       
      22        9       38 1        
      23       10       11 2        
      24       10       12 1        
      25       12       13 1        
      26       12       39 1        
      27       12       40 1        
      28       13       14 1        
      29       14       15 2        
      30       14       16 1        
      31       16       21 ar       
      32       16       17 ar       
      33       17       18 ar       
      34       17       41 1        
      35       18       19 ar       
      36       18       25 1        
      37       19       20 ar       
      38       19       24 1        
      39       20       21 ar       
      40       20       23 1        
      41       21       22 1        

