#        1GCZ_R01_S0001_C0000_L00009_S0001_C0002_G0010_E0001.mol2
#        Tue Jun  6 14:10:46 2017
#        Descriptor:     21     2    13     9     8    14
#        Energy - RMSD - RMSD MassCentre:     -49.2810    999.9999    999.9999
#        Receptor:       1  Surface Point:     1  Conformer:     0
#        Ligand:         9  Surface Point:     1  Conformer:     2
#        BUDE Formal Charge: 0
#        ATOM Count: 41
#        Heavy ATOM Count: 25
@<TRIPOS>MOLECULE
ZINC61352350_1GCZ_R01_S0001_C0000_L00009_S0001_C0002_G0010_E0001
 41 41 0 0 0
SMALL
USER_CHARGES
@<TRIPOS>ATOM
       1 C1         3.5734   -0.1562    4.0580 C.3       1 <0>        -0.1654 
       2 C2         3.3986    0.7924    5.2405 C.3       1 <0>         0.1681 
       3 C3         4.6225    1.6968    5.3535 C.3       1 <0>        -0.1654 
       4 C4         3.2430   -0.0172    6.5245 C.3       1 <0>        -0.1575 
       5 N1         2.1990    1.6164    5.0333 N.am      1 <0>        -0.7174 
       6 C5         1.8473    2.5208    5.9427 C.2       1 <0>         0.5123 
       7 O1         2.5262    2.6679    6.9577 O.2       1 <0>        -0.5302 
       8 C6         0.6149    3.3664    5.7284 C.3       1 <0>         0.1008 
       9 N2        -0.5810    2.5145    5.7986 N.am      1 <0>        -0.7137 
      10 C7        -0.9251    1.7649    4.7551 C.2       1 <0>         0.5216 
      11 O2        -0.2424    1.7851    3.7322 O.2       1 <0>        -0.5149 
      12 C8        -2.1535    0.8898    4.8272 C.3       1 <0>         0.0504 
      13 O3        -1.9772   -0.0946    5.8492 O.3       1 <0>        -0.3193 
      14 C9        -0.9789   -0.9911    5.6994 C.2       1 <0>         0.5173 
      15 O4        -0.2607   -0.9448    4.7143 O.2       1 <0>        -0.4724 
      16 C10       -0.7565   -2.0293    6.7304 C.ar      1 <0>        -0.1184 
      17 C11        0.2820   -2.9531    6.5634 C.ar      1 <0>        -0.0438 
      18 C12        0.5099   -3.9434    7.5264 C.ar      1 <0>         0.0822 
      19 C13       -0.2991   -4.0166    8.6625 C.ar      1 <0>         0.1048 
      20 C14       -1.3383   -3.0940    8.8320 C.ar      1 <0>         0.0533 
      21 C15       -1.5668   -2.1035    7.8695 C.ar      1 <0>         0.1585 
      22 F1        -2.5759   -1.2269    8.0585 F         1 <0>        -0.0849 
      23 F2        -2.1234   -3.1599    9.9284 F         1 <0>        -0.0975 
      24 F3        -0.0810   -4.9708    9.5924 F         1 <0>        -0.0955 
      25 F4         1.5160   -4.8258    7.3485 F         1 <0>        -0.1036 
      26 H1         3.6968    0.4225    3.1449 H         1 <0>         0.0780 
      27 H2         4.4537   -0.7752    4.2175 H         1 <0>         0.0552 
      28 H3         2.6941   -0.7907    3.9700 H         1 <0>         0.0657 
      29 H4         4.5022    2.3640    6.2045 H         1 <0>         0.0657 
      30 H5         4.7243    2.2836    4.4432 H         1 <0>         0.0552 
      31 H6         5.5121    1.0862    5.4937 H         1 <0>         0.0780 
      32 H7         2.3774   -0.6706    6.4379 H         1 <0>         0.0637 
      33 H8         4.1365   -0.6170    6.6848 H         1 <0>         0.0637 
      34 H9         3.1043    0.6600    7.3649 H         1 <0>         0.0763 
      35 H10        1.6415    1.4956    4.1998 H         1 <0>         0.4037 
      36 H11        0.5618    4.1312    6.5003 H         1 <0>         0.1033 
      37 H12        0.6665    3.8403    4.7505 H         1 <0>         0.1034 
      38 H13       -1.1409    2.4987    6.6390 H         1 <0>         0.4159 
      39 H14       -3.0218    1.5031    5.0593 H         1 <0>         0.1087 
      40 H15       -2.3031    0.3964    3.8691 H         1 <0>         0.1087 
      41 H16        0.9219   -2.9185    5.6941 H         1 <0>         0.1854 
@<TRIPOS>BOND
       1        1        2 1        
       2        1       26 1        
       3        1       27 1        
       4        1       28 1        
       5        2        3 1        
       6        2        4 1        
       7        2        5 1        
       8        3       29 1        
       9        3       30 1        
      10        3       31 1        
      11        4       32 1        
      12        4       33 1        
      13        4       34 1        
      14        5        6 am       
      15        5       35 1        
      16        6        7 2        
      17        6        8 1        
      18        8        9 1        
      19        8       36 1        
      20        8       37 1        
      21        9       10 am       
      22        9       38 1        
      23       10       11 2        
      24       10       12 1        
      25       12       13 1        
      26       12       39 1        
      27       12       40 1        
      28       13       14 1        
      29       14       15 2        
      30       14       16 1        
      31       16       21 ar       
      32       16       17 ar       
      33       17       18 ar       
      34       17       41 1        
      35       18       19 ar       
      36       18       25 1        
      37       19       20 ar       
      38       19       24 1        
      39       20       21 ar       
      40       20       23 1        
      41       21       22 1        

