#        1GCZ_R01_S0001_C0000_L00009_S0001_C0003_G0010_E0001.mol2
#        Tue Jun  6 09:57:40 2017
#        Descriptor:     32     3     4     8     4    15
#        Energy - RMSD - RMSD MassCentre:     -53.4964    999.9999    999.9999
#        Receptor:       1  Surface Point:     1  Conformer:     0
#        Ligand:         9  Surface Point:     1  Conformer:     3
#        BUDE Formal Charge: 0
#        ATOM Count: 41
#        Heavy ATOM Count: 25
@<TRIPOS>MOLECULE
ZINC61352350_1GCZ_R01_S0001_C0000_L00009_S0001_C0003_G0010_E0001
 41 41 0 0 0
SMALL
USER_CHARGES
@<TRIPOS>ATOM
       1 C1        -1.7377   -7.4310    7.0367 C.3       1 <0>        -0.1654 
       2 C2        -0.2739   -7.0013    7.0017 C.3       1 <0>         0.1681 
       3 C3         0.0076   -6.2567    5.6999 C.3       1 <0>        -0.1654 
       4 C4         0.6213   -8.2342    7.0873 C.3       1 <0>        -0.1575 
       5 N1         0.0032   -6.1155    8.1417 N.am      1 <0>        -0.7174 
       6 C5         1.2231   -5.6153    8.3151 C.2       1 <0>         0.5123 
       7 O1         2.1202   -5.8940    7.5211 O.2       1 <0>        -0.5302 
       8 C6         1.5061   -4.7056    9.4865 C.3       1 <0>         0.1008 
       9 N2         0.7780   -3.4408    9.3106 N.am      1 <0>        -0.7137 
      10 C7        -0.5214   -3.3779    9.5874 C.2       1 <0>         0.5216 
      11 O2        -1.1129   -4.3782    9.9905 O.2       1 <0>        -0.5149 
      12 C8        -1.2693   -2.0788    9.4067 C.3       1 <0>         0.0504 
      13 O3        -1.2456   -1.7040    8.0269 O.3       1 <0>        -0.3193 
      14 C9        -0.0478   -1.4413    7.4625 C.2       1 <0>         0.5173 
      15 O4         0.9714   -1.5270    8.1277 O.2       1 <0>        -0.4724 
      16 C10        0.0282   -1.0496    6.0374 C.ar      1 <0>        -0.1184 
      17 C11        1.2764   -0.7797    5.4638 C.ar      1 <0>        -0.0438 
      18 C12        1.3710   -0.4076    4.1176 C.ar      1 <0>         0.0822 
      19 C13        0.2183   -0.3028    3.3359 C.ar      1 <0>         0.1048 
      20 C14       -1.0312   -0.5720    3.9069 C.ar      1 <0>         0.0533 
      21 C15       -1.1266   -0.9443    5.2531 C.ar      1 <0>         0.1585 
      22 F1        -2.3443   -1.1981    5.7778 F         1 <0>        -0.0849 
      23 F2        -2.1488   -0.4723    3.1562 F         1 <0>        -0.0975 
      24 F3         0.3074    0.0560    2.0375 F         1 <0>        -0.0955 
      25 F4         2.5832   -0.1511    3.5814 F         1 <0>        -0.1036 
      26 H1        -2.3748   -6.5521    6.9630 H         1 <0>         0.0780 
      27 H2        -1.9395   -8.0972    6.2005 H         1 <0>         0.0552 
      28 H3        -1.9405   -7.9494    7.9714 H         1 <0>         0.0657 
      29 H4         1.0546   -5.9619    5.6706 H         1 <0>         0.0657 
      30 H5        -0.6210   -5.3704    5.6465 H         1 <0>         0.0552 
      31 H6        -0.2100   -6.9080    4.8559 H         1 <0>         0.0780 
      32 H7         0.4109   -8.7710    8.0100 H         1 <0>         0.0637 
      33 H8         0.4256   -8.8833    6.2364 H         1 <0>         0.0637 
      34 H9         1.6646   -7.9254    7.0766 H         1 <0>         0.0763 
      35 H10       -0.7335   -5.8867    8.7937 H         1 <0>         0.4037 
      36 H11        1.1805   -5.1874   10.4059 H         1 <0>         0.1033 
      37 H12        2.5742   -4.5056    9.5398 H         1 <0>         0.1034 
      38 H13        1.2647   -2.6201    8.9796 H         1 <0>         0.4159 
      39 H14       -2.2999   -2.2062    9.7311 H         1 <0>         0.1087 
      40 H15       -0.7946   -1.3018   10.0025 H         1 <0>         0.1087 
      41 H16        2.1830   -0.8534    6.0461 H         1 <0>         0.1854 
@<TRIPOS>BOND
       1        1        2 1        
       2        1       26 1        
       3        1       27 1        
       4        1       28 1        
       5        2        3 1        
       6        2        4 1        
       7        2        5 1        
       8        3       29 1        
       9        3       30 1        
      10        3       31 1        
      11        4       32 1        
      12        4       33 1        
      13        4       34 1        
      14        5        6 am       
      15        5       35 1        
      16        6        7 2        
      17        6        8 1        
      18        8        9 1        
      19        8       36 1        
      20        8       37 1        
      21        9       10 am       
      22        9       38 1        
      23       10       11 2        
      24       10       12 1        
      25       12       13 1        
      26       12       39 1        
      27       12       40 1        
      28       13       14 1        
      29       14       15 2        
      30       14       16 1        
      31       16       21 ar       
      32       16       17 ar       
      33       17       18 ar       
      34       17       41 1        
      35       18       19 ar       
      36       18       25 1        
      37       19       20 ar       
      38       19       24 1        
      39       20       21 ar       
      40       20       23 1        
      41       21       22 1        

