#        1GCZ_R01_S0001_C0000_L00009_S0001_C0003_G0010_E0001.mol2
#        Tue Jun  6 14:10:48 2017
#        Descriptor:     29    27    14     9     9    15
#        Energy - RMSD - RMSD MassCentre:     -49.1007    999.9999    999.9999
#        Receptor:       1  Surface Point:     1  Conformer:     0
#        Ligand:         9  Surface Point:     1  Conformer:     3
#        BUDE Formal Charge: 0
#        ATOM Count: 41
#        Heavy ATOM Count: 25
@<TRIPOS>MOLECULE
ZINC61352350_1GCZ_R01_S0001_C0000_L00009_S0001_C0003_G0010_E0001
 41 41 0 0 0
SMALL
USER_CHARGES
@<TRIPOS>ATOM
       1 C1        -0.5102    2.8010   10.0444 C.3       1 <0>        -0.1654 
       2 C2         0.3140    3.2768    8.8516 C.3       1 <0>         0.1681 
       3 C3         1.6985    2.6372    8.9012 C.3       1 <0>        -0.1654 
       4 C4         0.4523    4.7957    8.9012 C.3       1 <0>        -0.1575 
       5 N1        -0.3603    2.8875    7.6047 N.am      1 <0>        -0.7174 
       6 C5         0.1799    3.1994    6.4302 C.2       1 <0>         0.5123 
       7 O1         1.2444    3.8140    6.3872 O.2       1 <0>        -0.5302 
       8 C6        -0.5139    2.7988    5.1504 C.3       1 <0>         0.1008 
       9 N2        -0.4877    1.3352    5.0173 N.am      1 <0>        -0.7137 
      10 C7        -1.3475    0.5897    5.7059 C.2       1 <0>         0.5216 
      11 O2        -2.1639    1.1257    6.4536 O.2       1 <0>        -0.5149 
      12 C8        -1.3205   -0.9138    5.5692 C.3       1 <0>         0.0504 
      13 O3        -0.0634   -1.4115    6.0348 O.3       1 <0>        -0.3193 
      14 C9         1.0516   -1.0306    5.3761 C.2       1 <0>         0.5173 
      15 O4         0.9668   -0.2838    4.4151 O.2       1 <0>        -0.4724 
      16 C10        2.3761   -1.5193    5.8202 C.ar      1 <0>        -0.1184 
      17 C11        3.5250   -1.1170    5.1287 C.ar      1 <0>        -0.0438 
      18 C12        4.7877   -1.5674    5.5319 C.ar      1 <0>         0.0822 
      19 C13        4.9101   -2.4229    6.6291 C.ar      1 <0>         0.1048 
      20 C14        3.7629   -2.8267    7.3224 C.ar      1 <0>         0.0533 
      21 C15        2.4999   -2.3767    6.9198 C.ar      1 <0>         0.1585 
      22 F1         1.4106   -2.7820    7.6066 F         1 <0>        -0.0849 
      23 F2         3.8752   -3.6536    8.3837 F         1 <0>        -0.0975 
      24 F3         6.1269   -2.8584    7.0195 F         1 <0>        -0.0955 
      25 F4         5.8846   -1.1691    4.8530 F         1 <0>        -0.1036 
      26 H1        -0.5976    1.7169   10.0147 H         1 <0>         0.0780 
      27 H2        -0.0180    3.1006   10.9672 H         1 <0>         0.0552 
      28 H3        -1.5017    3.2467   10.0002 H         1 <0>         0.0657 
      29 H4         2.2893    2.9871    8.0572 H         1 <0>         0.0657 
      30 H5         1.5993    1.5550    8.8516 H         1 <0>         0.0552 
      31 H6         2.1924    2.9147    9.8301 H         1 <0>         0.0780 
      32 H7        -0.5359    5.2501    8.8783 H         1 <0>         0.0637 
      33 H8         0.9633    5.0828    9.8178 H         1 <0>         0.0637 
      34 H9         1.0281    5.1349    8.0425 H         1 <0>         0.0763 
      35 H10       -1.2345    2.3828    7.6400 H         1 <0>         0.4037 
      36 H11       -1.5456    3.1430    5.1749 H         1 <0>         0.1033 
      37 H12       -0.0006    3.2498    4.3038 H         1 <0>         0.1034 
      38 H13        0.1831    0.8961    4.4030 H         1 <0>         0.4159 
      39 H14       -2.1244   -1.3456    6.1617 H         1 <0>         0.1087 
      40 H15       -1.4540   -1.1847    4.5239 H         1 <0>         0.1087 
      41 H16        3.4580   -0.4562    4.2771 H         1 <0>         0.1854 
@<TRIPOS>BOND
       1        1        2 1        
       2        1       26 1        
       3        1       27 1        
       4        1       28 1        
       5        2        3 1        
       6        2        4 1        
       7        2        5 1        
       8        3       29 1        
       9        3       30 1        
      10        3       31 1        
      11        4       32 1        
      12        4       33 1        
      13        4       34 1        
      14        5        6 am       
      15        5       35 1        
      16        6        7 2        
      17        6        8 1        
      18        8        9 1        
      19        8       36 1        
      20        8       37 1        
      21        9       10 am       
      22        9       38 1        
      23       10       11 2        
      24       10       12 1        
      25       12       13 1        
      26       12       39 1        
      27       12       40 1        
      28       13       14 1        
      29       14       15 2        
      30       14       16 1        
      31       16       21 ar       
      32       16       17 ar       
      33       17       18 ar       
      34       17       41 1        
      35       18       19 ar       
      36       18       25 1        
      37       19       20 ar       
      38       19       24 1        
      39       20       21 ar       
      40       20       23 1        
      41       21       22 1        

