#        1GCZ_R01_S0001_C0000_L00009_S0001_C0004_G0010_E0001.mol2
#        Tue Jun  6 09:57:41 2017
#        Descriptor:     33     4     2     8     7    13
#        Energy - RMSD - RMSD MassCentre:     -59.2768    999.9999    999.9999
#        Receptor:       1  Surface Point:     1  Conformer:     0
#        Ligand:         9  Surface Point:     1  Conformer:     4
#        BUDE Formal Charge: 0
#        ATOM Count: 41
#        Heavy ATOM Count: 25
@<TRIPOS>MOLECULE
ZINC61352350_1GCZ_R01_S0001_C0000_L00009_S0001_C0004_G0010_E0001
 41 41 0 0 0
SMALL
USER_CHARGES
@<TRIPOS>ATOM
       1 C1        -2.4608    0.4544    2.4268 C.3       1 <0>        -0.1654 
       2 C2        -0.9416    0.5010    2.5621 C.3       1 <0>         0.1681 
       3 C3        -0.3598    1.3934    1.4696 C.3       1 <0>        -0.1654 
       4 C4        -0.3743   -0.9088    2.4243 C.3       1 <0>        -0.1575 
       5 N1        -0.5845    1.0453    3.8801 N.am      1 <0>        -0.7174 
       6 C5         0.6940    1.1787    4.2212 C.2       1 <0>         0.5123 
       7 O1         1.5781    0.8464    3.4334 O.2       1 <0>        -0.5302 
       8 C6         1.0591    1.7379    5.5754 C.3       1 <0>         0.1008 
       9 N2         0.6553    0.7879    6.6219 N.am      1 <0>        -0.7137 
      10 C7        -0.6172    0.7205    7.0032 C.2       1 <0>         0.5216 
      11 O2        -1.4551    1.4531    6.4797 O.2       1 <0>        -0.5149 
      12 C8        -1.0320   -0.2553    8.0781 C.3       1 <0>         0.0504 
      13 O3        -0.7904   -1.5908    7.6276 O.3       1 <0>        -0.3193 
      14 C9         0.4849   -1.9516    7.3712 C.2       1 <0>         0.5173 
      15 O4         1.3889   -1.1470    7.5259 O.2       1 <0>        -0.4724 
      16 C10        0.7855   -3.3228    6.9026 C.ar      1 <0>        -0.1184 
      17 C11        2.1121   -3.6847    6.6402 C.ar      1 <0>        -0.0438 
      18 C12        2.4187   -4.9765    6.1962 C.ar      1 <0>         0.0822 
      19 C13        1.4009   -5.9150    6.0116 C.ar      1 <0>         0.1048 
      20 C14        0.0734   -5.5558    6.2732 C.ar      1 <0>         0.0533 
      21 C15       -0.2339   -4.2642    6.7172 C.ar      1 <0>         0.1585 
      22 F1        -1.5226   -3.9450    6.9618 F         1 <0>        -0.0849 
      23 F2        -0.9146   -6.4588    6.0966 F         1 <0>        -0.0975 
      24 F3         1.6944   -7.1612    5.5835 F         1 <0>        -0.0955 
      25 F4         3.7038   -5.3077    5.9482 F         1 <0>        -0.1036 
      26 H1        -2.8630    1.4618    2.5128 H         1 <0>         0.0780 
      27 H2        -2.7253    0.0393    1.4565 H         1 <0>         0.0552 
      28 H3        -2.8754   -0.1707    3.2147 H         1 <0>         0.0657 
      29 H4         0.7243    1.4157    1.5595 H         1 <0>         0.0657 
      30 H5        -0.7541    2.4016    1.5775 H         1 <0>         0.0552 
      31 H6        -0.6352    0.9979    0.4942 H         1 <0>         0.0780 
      32 H7        -0.7993   -1.5472    3.1960 H         1 <0>         0.0637 
      33 H8        -0.6272   -1.3065    1.4437 H         1 <0>         0.0637 
      34 H9         0.7077   -0.8761    2.5351 H         1 <0>         0.0763 
      35 H10       -1.3105    1.3181    4.5271 H         1 <0>         0.4037 
      36 H11        2.1344    1.8961    5.6238 H         1 <0>         0.1033 
      37 H12        0.5455    2.6849    5.7265 H         1 <0>         0.1034 
      38 H13        1.3442    0.1868    7.0511 H         1 <0>         0.4159 
      39 H14       -0.4548   -0.0664    8.9809 H         1 <0>         0.1087 
      40 H15       -2.0915   -0.1298    8.2916 H         1 <0>         0.1087 
      41 H16        2.9178   -2.9782    6.7748 H         1 <0>         0.1854 
@<TRIPOS>BOND
       1        1        2 1        
       2        1       26 1        
       3        1       27 1        
       4        1       28 1        
       5        2        3 1        
       6        2        4 1        
       7        2        5 1        
       8        3       29 1        
       9        3       30 1        
      10        3       31 1        
      11        4       32 1        
      12        4       33 1        
      13        4       34 1        
      14        5        6 am       
      15        5       35 1        
      16        6        7 2        
      17        6        8 1        
      18        8        9 1        
      19        8       36 1        
      20        8       37 1        
      21        9       10 am       
      22        9       38 1        
      23       10       11 2        
      24       10       12 1        
      25       12       13 1        
      26       12       39 1        
      27       12       40 1        
      28       13       14 1        
      29       14       15 2        
      30       14       16 1        
      31       16       21 ar       
      32       16       17 ar       
      33       17       18 ar       
      34       17       41 1        
      35       18       19 ar       
      36       18       25 1        
      37       19       20 ar       
      38       19       24 1        
      39       20       21 ar       
      40       20       23 1        
      41       21       22 1        

