#        1GCZ_R01_S0001_C0000_L00009_S0001_C0004_G0010_E0001.mol2
#        Tue Jun  6 14:10:50 2017
#        Descriptor:      3    26    35    11     9    15
#        Energy - RMSD - RMSD MassCentre:     -52.4276    999.9999    999.9999
#        Receptor:       1  Surface Point:     1  Conformer:     0
#        Ligand:         9  Surface Point:     1  Conformer:     4
#        BUDE Formal Charge: 0
#        ATOM Count: 41
#        Heavy ATOM Count: 25
@<TRIPOS>MOLECULE
ZINC61352350_1GCZ_R01_S0001_C0000_L00009_S0001_C0004_G0010_E0001
 41 41 0 0 0
SMALL
USER_CHARGES
@<TRIPOS>ATOM
       1 C1         5.2980    2.4236    9.7359 C.3       1 <0>        -0.1654 
       2 C2         4.3773    3.0691    8.7043 C.3       1 <0>         0.1681 
       3 C3         4.5154    4.5870    8.7772 C.3       1 <0>        -0.1654 
       4 C4         2.9320    2.6744    8.9936 C.3       1 <0>        -0.1575 
       5 N1         4.7505    2.6080    7.3593 N.am      1 <0>        -0.7174 
       6 C5         4.0798    3.0430    6.2965 C.2       1 <0>         0.5123 
       7 O1         3.1468    3.8316    6.4390 O.2       1 <0>        -0.5302 
       8 C6         4.4644    2.5684    4.9156 C.3       1 <0>         0.1008 
       9 N2         4.1620    1.1354    4.7891 N.am      1 <0>        -0.7137 
      10 C7         4.9841    0.2335    5.3179 C.2       1 <0>         0.5216 
      11 O2         5.9969    0.5992    5.9125 O.2       1 <0>        -0.5149 
      12 C8         4.6735   -1.2384    5.1880 C.3       1 <0>         0.0504 
      13 O3         3.4475   -1.5276    5.8648 O.3       1 <0>        -0.3193 
      14 C9         2.3196   -0.9420    5.4097 C.2       1 <0>         0.5173 
      15 O4         2.3672   -0.1920    4.4486 O.2       1 <0>        -0.4724 
      16 C10        1.0262   -1.2101    6.0771 C.ar      1 <0>        -0.1184 
      17 C11       -0.1365   -0.5966    5.5956 C.ar      1 <0>        -0.0438 
      18 C12       -1.3703   -0.8364    6.2119 C.ar      1 <0>         0.0822 
      19 C13       -1.4500   -1.6911    7.3137 C.ar      1 <0>         0.1048 
      20 C14       -0.2890   -2.3058    7.7973 C.ar      1 <0>         0.0533 
      21 C15        0.9452   -2.0665    7.1815 C.ar      1 <0>         0.1585 
      22 F1         2.0488   -2.6726    7.6687 F         1 <0>        -0.0849 
      23 F2        -0.3599   -3.1329    8.8619 F         1 <0>        -0.0975 
      24 F3        -2.6389   -1.9236    7.9095 F         1 <0>        -0.0955 
      25 F4        -2.4811   -0.2361    5.7338 F         1 <0>        -0.1036 
      26 H1         6.3269    2.7158    9.5360 H         1 <0>         0.0780 
      27 H2         5.0135    2.7544   10.7325 H         1 <0>         0.0552 
      28 H3         5.2091    1.3411    9.6733 H         1 <0>         0.0657 
      29 H4         3.8492    5.0464    8.0499 H         1 <0>         0.0657 
      30 H5         5.5430    4.8680    8.5570 H         1 <0>         0.0552 
      31 H6         4.2519    4.9269    9.7766 H         1 <0>         0.0780 
      32 H7         2.8375    1.5913    8.9536 H         1 <0>         0.0637 
      33 H8         2.6517    3.0274    9.9838 H         1 <0>         0.0637 
      34 H9         2.2781    3.1238    8.2490 H         1 <0>         0.0763 
      35 H10        5.5167    1.9604    7.2423 H         1 <0>         0.4037 
      36 H11        3.9000    3.1258    4.1710 H         1 <0>         0.1033 
      37 H12        5.5289    2.7301    4.7606 H         1 <0>         0.1034 
      38 H13        3.3301    0.8363    4.3006 H         1 <0>         0.4159 
      39 H14        4.5772   -1.4965    4.1354 H         1 <0>         0.1087 
      40 H15        5.4795   -1.8189    5.6319 H         1 <0>         0.1087 
      41 H16       -0.1024    0.0684    4.7453 H         1 <0>         0.1854 
@<TRIPOS>BOND
       1        1        2 1        
       2        1       26 1        
       3        1       27 1        
       4        1       28 1        
       5        2        3 1        
       6        2        4 1        
       7        2        5 1        
       8        3       29 1        
       9        3       30 1        
      10        3       31 1        
      11        4       32 1        
      12        4       33 1        
      13        4       34 1        
      14        5        6 am       
      15        5       35 1        
      16        6        7 2        
      17        6        8 1        
      18        8        9 1        
      19        8       36 1        
      20        8       37 1        
      21        9       10 am       
      22        9       38 1        
      23       10       11 2        
      24       10       12 1        
      25       12       13 1        
      26       12       39 1        
      27       12       40 1        
      28       13       14 1        
      29       14       15 2        
      30       14       16 1        
      31       16       21 ar       
      32       16       17 ar       
      33       17       18 ar       
      34       17       41 1        
      35       18       19 ar       
      36       18       25 1        
      37       19       20 ar       
      38       19       24 1        
      39       20       21 ar       
      40       20       23 1        
      41       21       22 1        

