#        1GCZ_R01_S0001_C0000_L00003_S0001_C0010_G0010_E0001.mol2
#        Tue Jun  6 14:03:46 2017
#        Descriptor:     11    12    14    15     3    12
#        Energy - RMSD - RMSD MassCentre:     -56.6228    999.9999    999.9999
#        Receptor:       1  Surface Point:     1  Conformer:     0
#        Ligand:         3  Surface Point:     1  Conformer:    10
#        BUDE Formal Charge: 0
#        ATOM Count: 58
#        Heavy ATOM Count: 30
@<TRIPOS>MOLECULE
ZINC61580633_1GCZ_R01_S0001_C0000_L00003_S0001_C0010_G0010_E0001
 58 59 0 0 0
SMALL
USER_CHARGES
@<TRIPOS>ATOM
       1 C1        11.9008   -9.0626    1.2122 C.3       1 <0>        -0.1532 
       2 C2        10.4826   -9.6078    1.3551 C.3       1 <0>        -0.1224 
       3 C3         9.5710   -8.5140    1.9095 C.3       1 <0>        -0.1198 
       4 C4         9.5510   -7.3305    0.9432 C.3       1 <0>         0.0610 
       5 O1         8.6978   -6.3070    1.4620 O.3       1 <0>        -0.3878 
       6 C5         8.6396   -5.1699    0.5967 C.3       1 <0>         0.0487 
       7 C6         7.7157   -4.1155    1.2043 C.3       1 <0>         0.1244 
       8 N1         8.3727   -3.5007    2.3667 N.am      1 <0>        -0.7216 
       9 C7         9.3950   -2.6687    2.1891 C.2       1 <0>         0.5161 
      10 O2         9.7909   -2.4132    1.0532 O.2       1 <0>        -0.5151 
      11 C8        10.0699   -2.0371    3.3833 C.3       1 <0>         0.0490 
      12 O3         9.1847   -1.0878    3.9832 O.3       1 <0>        -0.3194 
      13 C9         8.0242   -1.5432    4.5010 C.2       1 <0>         0.5417 
      14 O4         7.7572   -2.7326    4.4488 O.2       1 <0>        -0.5337 
      15 C10        7.0753   -0.5995    5.1325 C.2       1 <0>        -0.2559 
      16 C11        7.3053    0.8569    5.2612 C.2       1 <0>        -0.0791 
      17 C12        6.2999    1.4777    5.8827 C.2       1 <0>        -0.2585 
      18 S1         5.0019    0.3711    6.3547 S.3       1 <0>         0.3028 
      19 C13        5.9075   -0.9843    5.6652 C.2       1 <0>         0.0893 
      20 N2         5.5015   -2.2928    5.6648 N.am      1 <0>        -0.6099 
      21 C14        4.3334   -2.6276    6.2056 C.2       1 <0>         0.5551 
      22 O5         3.6172   -1.7620    6.7063 O.2       1 <0>        -0.4939 
      23 C15        3.8963   -4.0415    6.2044 C.ar      1 <0>        -0.1466 
      24 C16        2.6611   -4.3499    6.7870 C.ar      1 <0>        -0.0772 
      25 C17        2.2271   -5.6774    6.8820 C.ar      1 <0>        -0.1241 
      26 C18        3.0257   -6.7232    6.4048 C.ar      1 <0>        -0.0446 
      27 C19        4.2367   -6.4140    5.7740 C.ar      1 <0>        -0.1261 
      28 C20        4.6536   -5.0829    5.6549 C.ar      1 <0>        -0.0460 
      29 C21        2.5679   -8.1525    6.5726 C.3       1 <0>        -0.0928 
      30 C22        3.0918   -8.7013    7.8965 C.3       1 <0>        -0.1485 
      31 H1        12.2711   -8.7566    2.1883 H         1 <0>         0.0567 
      32 H2        11.8934   -8.2059    0.5416 H         1 <0>         0.0554 
      33 H3        12.5470   -9.8373    0.8048 H         1 <0>         0.0557 
      34 H4        10.1158   -9.9258    0.3815 H         1 <0>         0.0632 
      35 H5        10.4864  -10.4559    2.0366 H         1 <0>         0.0635 
      36 H6         8.5623   -8.9052    2.0237 H         1 <0>         0.0711 
      37 H7         9.9449   -8.1852    2.8770 H         1 <0>         0.0704 
      38 H8        10.5592   -6.9379    0.8287 H         1 <0>         0.0498 
      39 H9         9.1765   -7.6580   -0.0245 H         1 <0>         0.0505 
      40 H10        8.2547   -5.4720   -0.3749 H         1 <0>         0.0584 
      41 H11        9.6372   -4.7521    0.4784 H         1 <0>         0.0702 
      42 H12        6.7866   -4.5852    1.5201 H         1 <0>         0.0872 
      43 H13        7.5016   -3.3492    0.4623 H         1 <0>         0.0805 
      44 H14        8.0483   -3.7097    3.3001 H         1 <0>         0.4058 
      45 H15       10.3199   -2.8080    4.1091 H         1 <0>         0.1008 
      46 H16       10.9785   -1.5322    3.0620 H         1 <0>         0.0999 
      47 H17        8.1895    1.3436    4.8770 H         1 <0>         0.1557 
      48 H18        6.2893    2.5432    6.0584 H         1 <0>         0.1929 
      49 H19        6.0895   -3.0035    5.2537 H         1 <0>         0.4317 
      50 H20        2.0367   -3.5573    7.1721 H         1 <0>         0.1287 
      51 H21        1.2696   -5.9026    7.3279 H         1 <0>         0.1326 
      52 H22        4.8419   -7.2158    5.3776 H         1 <0>         0.1342 
      53 H23        5.5664   -4.9012    5.1071 H         1 <0>         0.1410 
      54 H24        2.9526   -8.7544    5.7520 H         1 <0>         0.0777 
      55 H25        1.4805   -8.1870    6.5697 H         1 <0>         0.0771 
      56 H26        2.6963   -8.1062    8.7169 H         1 <0>         0.0623 
      57 H27        4.1787   -8.6531    7.9037 H         1 <0>         0.0572 
      58 H28        2.7731   -9.7352    8.0111 H         1 <0>         0.0578 
@<TRIPOS>BOND
       1        1        2 1        
       2        1       31 1        
       3        1       32 1        
       4        1       33 1        
       5        2        3 1        
       6        2       34 1        
       7        2       35 1        
       8        3        4 1        
       9        3       36 1        
      10        3       37 1        
      11        4        5 1        
      12        4       38 1        
      13        4       39 1        
      14        5        6 1        
      15        6        7 1        
      16        6       40 1        
      17        6       41 1        
      18        7        8 1        
      19        7       42 1        
      20        7       43 1        
      21        8        9 am       
      22        8       44 1        
      23        9       10 2        
      24        9       11 1        
      25       11       12 1        
      26       11       45 1        
      27       11       46 1        
      28       12       13 1        
      29       13       14 2        
      30       13       15 1        
      31       15       19 2        
      32       15       16 1        
      33       16       17 2        
      34       16       47 1        
      35       17       18 1        
      36       17       48 1        
      37       18       19 1        
      38       19       20 1        
      39       20       21 am       
      40       20       49 1        
      41       21       22 2        
      42       21       23 1        
      43       23       28 ar       
      44       23       24 ar       
      45       24       25 ar       
      46       24       50 1        
      47       25       26 ar       
      48       25       51 1        
      49       26       27 ar       
      50       26       29 1        
      51       27       28 ar       
      52       27       52 1        
      53       28       53 1        
      54       29       30 1        
      55       29       54 1        
      56       29       55 1        
      57       30       56 1        
      58       30       57 1        
      59       30       58 1        

