#        1GCZ_R01_S0001_C0000_L00009_S0001_C0005_G0010_E0001.mol2
#        Tue Jun  6 09:57:41 2017
#        Descriptor:      7    29    17     8     8    15
#        Energy - RMSD - RMSD MassCentre:     -56.4842    999.9999    999.9999
#        Receptor:       1  Surface Point:     1  Conformer:     0
#        Ligand:         9  Surface Point:     1  Conformer:     5
#        BUDE Formal Charge: 0
#        ATOM Count: 41
#        Heavy ATOM Count: 25
@<TRIPOS>MOLECULE
ZINC61352350_1GCZ_R01_S0001_C0000_L00009_S0001_C0005_G0010_E0001
 41 41 0 0 0
SMALL
USER_CHARGES
@<TRIPOS>ATOM
       1 C1        -1.2551   -0.5365    9.8138 C.3       1 <0>        -0.1654 
       2 C2        -1.5109   -1.3995    8.5816 C.3       1 <0>         0.1681 
       3 C3        -2.5171   -2.4938    8.9259 C.3       1 <0>        -0.1654 
       4 C4        -0.2016   -2.0364    8.1248 C.3       1 <0>        -0.1575 
       5 N1        -2.0503   -0.5614    7.5009 N.am      1 <0>        -0.7174 
       6 C5        -2.3502   -1.1037    6.3243 C.2       1 <0>         0.5123 
       7 O1        -2.1762   -2.3073    6.1401 O.2       1 <0>        -0.5302 
       8 C6        -2.9041   -0.2416    5.2154 C.3       1 <0>         0.1008 
       9 N2        -1.8679    0.6971    4.7617 N.am      1 <0>        -0.7137 
      10 C7        -0.9053    0.2801    3.9441 C.2       1 <0>         0.5216 
      11 O2        -0.8828   -0.8908    3.5682 O.2       1 <0>        -0.5149 
      12 C8         0.1590    1.2444    3.4780 C.3       1 <0>         0.0504 
      13 O3         0.9106    1.7043    4.6043 O.3       1 <0>        -0.3193 
      14 C9         1.6176    0.7945    5.3079 C.2       1 <0>         0.5173 
      15 O4         1.6019   -0.3793    4.9756 O.2       1 <0>        -0.4724 
      16 C10        2.4113    1.2217    6.4817 C.ar      1 <0>        -0.1184 
      17 C11        3.1401    0.2688    7.2030 C.ar      1 <0>        -0.0438 
      18 C12        3.8975    0.6512    8.3166 C.ar      1 <0>         0.0822 
      19 C13        3.9311    1.9891    8.7162 C.ar      1 <0>         0.1048 
      20 C14        3.2032    2.9441    7.9968 C.ar      1 <0>         0.0533 
      21 C15        2.4456    2.5624    6.8831 C.ar      1 <0>         0.1585 
      22 F1         1.7533    3.5043    6.2078 F         1 <0>        -0.0849 
      23 F2         3.2320    4.2388    8.3786 F         1 <0>        -0.0975 
      24 F3         4.6608    2.3600    9.7898 F         1 <0>        -0.0955 
      25 F4         4.5941   -0.2816    9.0001 F         1 <0>        -0.1036 
      26 H1        -2.1914   -0.0929   10.1458 H         1 <0>         0.0780 
      27 H2        -0.8434   -1.1541   10.6092 H         1 <0>         0.0552 
      28 H3        -0.5483    0.2518    9.5632 H         1 <0>         0.0657 
      29 H4        -2.6890   -3.1159    8.0500 H         1 <0>         0.0657 
      30 H5        -3.4545   -2.0384    9.2379 H         1 <0>         0.0552 
      31 H6        -2.1235   -3.1060    9.7346 H         1 <0>         0.0780 
      32 H7         0.5189   -1.2554    7.8915 H         1 <0>         0.0637 
      33 H8         0.1906   -2.6672    8.9198 H         1 <0>         0.0637 
      34 H9        -0.3829   -2.6401    7.2378 H         1 <0>         0.0763 
      35 H10       -2.1931    0.4269    7.6522 H         1 <0>         0.4037 
      36 H11       -3.2109   -0.8734    4.3845 H         1 <0>         0.1033 
      37 H12       -3.7626    0.3155    5.5844 H         1 <0>         0.1034 
      38 H13       -1.8875    1.6584    5.0710 H         1 <0>         0.4159 
      39 H14        0.8233    0.7403    2.7792 H         1 <0>         0.1087 
      40 H15       -0.3116    2.0922    2.9845 H         1 <0>         0.1087 
      41 H16        3.1312   -0.7721    6.9151 H         1 <0>         0.1854 
@<TRIPOS>BOND
       1        1        2 1        
       2        1       26 1        
       3        1       27 1        
       4        1       28 1        
       5        2        3 1        
       6        2        4 1        
       7        2        5 1        
       8        3       29 1        
       9        3       30 1        
      10        3       31 1        
      11        4       32 1        
      12        4       33 1        
      13        4       34 1        
      14        5        6 am       
      15        5       35 1        
      16        6        7 2        
      17        6        8 1        
      18        8        9 1        
      19        8       36 1        
      20        8       37 1        
      21        9       10 am       
      22        9       38 1        
      23       10       11 2        
      24       10       12 1        
      25       12       13 1        
      26       12       39 1        
      27       12       40 1        
      28       13       14 1        
      29       14       15 2        
      30       14       16 1        
      31       16       21 ar       
      32       16       17 ar       
      33       17       18 ar       
      34       17       41 1        
      35       18       19 ar       
      36       18       25 1        
      37       19       20 ar       
      38       19       24 1        
      39       20       21 ar       
      40       20       23 1        
      41       21       22 1        

