#        1GCZ_R01_S0001_C0000_L00009_S0001_C0005_G0010_E0001.mol2
#        Tue Jun  6 14:10:52 2017
#        Descriptor:      7    32    15     9     7    14
#        Energy - RMSD - RMSD MassCentre:     -53.9991    999.9999    999.9999
#        Receptor:       1  Surface Point:     1  Conformer:     0
#        Ligand:         9  Surface Point:     1  Conformer:     5
#        BUDE Formal Charge: 0
#        ATOM Count: 41
#        Heavy ATOM Count: 25
@<TRIPOS>MOLECULE
ZINC61352350_1GCZ_R01_S0001_C0000_L00009_S0001_C0005_G0010_E0001
 41 41 0 0 0
SMALL
USER_CHARGES
@<TRIPOS>ATOM
       1 C1         0.9881   -1.8549    9.0082 C.3       1 <0>        -0.1654 
       2 C2        -0.0691   -2.2771    7.9921 C.3       1 <0>         0.1681 
       3 C3        -1.1469   -3.1010    8.6907 C.3       1 <0>        -0.1654 
       4 C4         0.5831   -3.1155    6.8966 C.3       1 <0>        -0.1575 
       5 N1        -0.6788   -1.0803    7.3946 N.am      1 <0>        -0.7174 
       6 C5        -1.6323   -1.2066    6.4762 C.2       1 <0>         0.5123 
       7 O1        -2.0043   -2.3256    6.1266 O.2       1 <0>        -0.5302 
       8 C6        -2.2574    0.0236    5.8635 C.3       1 <0>         0.1008 
       9 N2        -1.2586    0.7222    5.0419 N.am      1 <0>        -0.7137 
      10 C7        -0.9691    0.2739    3.8236 C.2       1 <0>         0.5216 
      11 O2        -1.5373   -0.7251    3.3853 O.2       1 <0>        -0.5149 
      12 C8         0.0569    0.9915    2.9796 C.3       1 <0>         0.0504 
      13 O3         1.3315    0.9292    3.6249 O.3       1 <0>        -0.3193 
      14 C9         1.8903   -0.2862    3.8070 C.2       1 <0>         0.5173 
      15 O4         1.3083   -1.2881    3.4251 O.2       1 <0>        -0.4724 
      16 C10        3.2084   -0.4023    4.4699 C.ar      1 <0>        -0.1184 
      17 C11        3.7772   -1.6681    4.6530 C.ar      1 <0>        -0.0438 
      18 C12        5.0231   -1.8007    5.2776 C.ar      1 <0>         0.0822 
      19 C13        5.7084   -0.6683    5.7233 C.ar      1 <0>         0.1048 
      20 C14        5.1419    0.5989    5.5416 C.ar      1 <0>         0.0533 
      21 C15        3.8961    0.7322    4.9170 C.ar      1 <0>         0.1585 
      22 F1         3.3733    1.9663    4.7549 F         1 <0>        -0.0849 
      23 F2         5.7999    1.6970    5.9705 F         1 <0>        -0.0975 
      24 F3         6.9099   -0.7938    6.3260 F         1 <0>        -0.0955 
      25 F4         5.5562   -3.0296    5.4455 F         1 <0>        -0.1036 
      26 H1         0.5197   -1.2677    9.7954 H         1 <0>         0.0780 
      27 H2         1.4487   -2.7405    9.4408 H         1 <0>         0.0552 
      28 H3         1.7485   -1.2557    8.5117 H         1 <0>         0.0657 
      29 H4        -1.8934   -3.4120    7.9629 H         1 <0>         0.0657 
      30 H5        -1.6207   -2.4976    9.4621 H         1 <0>         0.0552 
      31 H6        -0.6936   -3.9800    9.1442 H         1 <0>         0.0780 
      32 H7         1.3597   -2.5312    6.4076 H         1 <0>         0.0637 
      33 H8         1.0227   -4.0079    7.3371 H         1 <0>         0.0637 
      34 H9        -0.1693   -3.4039    6.1653 H         1 <0>         0.0763 
      35 H10       -0.3733   -0.1614    7.6818 H         1 <0>         0.4037 
      36 H11       -3.0992   -0.2703    5.2402 H         1 <0>         0.1033 
      37 H12       -2.6045    0.6854    6.6542 H         1 <0>         0.1034 
      38 H13       -0.7926    1.5424    5.4028 H         1 <0>         0.4159 
      39 H14        0.1200    0.5149    2.0036 H         1 <0>         0.1087 
      40 H15       -0.2382    2.0316    2.8576 H         1 <0>         0.1087 
      41 H16        3.2682   -2.5597    4.3176 H         1 <0>         0.1854 
@<TRIPOS>BOND
       1        1        2 1        
       2        1       26 1        
       3        1       27 1        
       4        1       28 1        
       5        2        3 1        
       6        2        4 1        
       7        2        5 1        
       8        3       29 1        
       9        3       30 1        
      10        3       31 1        
      11        4       32 1        
      12        4       33 1        
      13        4       34 1        
      14        5        6 am       
      15        5       35 1        
      16        6        7 2        
      17        6        8 1        
      18        8        9 1        
      19        8       36 1        
      20        8       37 1        
      21        9       10 am       
      22        9       38 1        
      23       10       11 2        
      24       10       12 1        
      25       12       13 1        
      26       12       39 1        
      27       12       40 1        
      28       13       14 1        
      29       14       15 2        
      30       14       16 1        
      31       16       21 ar       
      32       16       17 ar       
      33       17       18 ar       
      34       17       41 1        
      35       18       19 ar       
      36       18       25 1        
      37       19       20 ar       
      38       19       24 1        
      39       20       21 ar       
      40       20       23 1        
      41       21       22 1        

