#        1GCZ_R01_S0001_C0000_L00009_S0001_C0006_G0010_E0001.mol2
#        Tue Jun  6 09:57:42 2017
#        Descriptor:     18    26    31    12     8    15
#        Energy - RMSD - RMSD MassCentre:     -52.5193    999.9999    999.9999
#        Receptor:       1  Surface Point:     1  Conformer:     0
#        Ligand:         9  Surface Point:     1  Conformer:     6
#        BUDE Formal Charge: 0
#        ATOM Count: 41
#        Heavy ATOM Count: 25
@<TRIPOS>MOLECULE
ZINC61352350_1GCZ_R01_S0001_C0000_L00009_S0001_C0006_G0010_E0001
 41 41 0 0 0
SMALL
USER_CHARGES
@<TRIPOS>ATOM
       1 C1         6.4965    1.2105    9.7450 C.3       1 <0>        -0.1654 
       2 C2         6.9658    0.6512    8.4050 C.3       1 <0>         0.1681 
       3 C3         6.5733   -0.8198    8.3012 C.3       1 <0>        -0.1654 
       4 C4         8.4825    0.7823    8.3012 C.3       1 <0>        -0.1575 
       5 N1         6.3338    1.4044    7.3123 N.am      1 <0>        -0.7174 
       6 C5         6.5975    1.0900    6.0473 C.2       1 <0>         0.5123 
       7 O1         7.3709    0.1684    5.7915 O.2       1 <0>        -0.5302 
       8 C6         5.9475    1.8647    4.9261 C.3       1 <0>         0.1008 
       9 N2         4.5027    1.5942    4.9181 N.am      1 <0>        -0.7137 
      10 C7         3.7071    2.2068    5.7903 C.2       1 <0>         0.5216 
      11 O2         4.1809    2.9994    6.6029 O.2       1 <0>        -0.5149 
      12 C8         2.2230    1.9289    5.7821 C.3       1 <0>         0.0504 
      13 O3         1.9949    0.5523    6.0948 O.3       1 <0>        -0.3193 
      14 C9         0.7184    0.1151    6.1346 C.2       1 <0>         0.5173 
      15 O4        -0.1980    0.8878    5.9073 O.2       1 <0>        -0.4724 
      16 C10        0.4313   -1.3013    6.4537 C.ar      1 <0>        -0.1184 
      17 C11       -0.8967   -1.7424    6.4918 C.ar      1 <0>        -0.0438 
      18 C12       -1.1905   -3.0779    6.7917 C.ar      1 <0>         0.0822 
      19 C13       -0.1584   -3.9812    7.0554 C.ar      1 <0>         0.1048 
      20 C14        1.1705   -3.5427    7.0180 C.ar      1 <0>         0.0533 
      21 C15        1.4650   -2.2074    6.7182 C.ar      1 <0>         0.1585 
      22 F1         2.7555   -1.8119    6.6892 F         1 <0>        -0.0849 
      23 F2         2.1722   -4.4115    7.2721 F         1 <0>        -0.0975 
      24 F3        -0.4395   -5.2696    7.3447 F         1 <0>        -0.0955 
      25 F4        -2.4772   -3.4854    6.8238 F         1 <0>        -0.1036 
      26 H1         5.4164    1.1050    9.8230 H         1 <0>         0.0780 
      27 H2         6.9745    0.6617   10.5537 H         1 <0>         0.0552 
      28 H3         6.7645    2.2627    9.8118 H         1 <0>         0.0657 
      29 H4         6.9195   -1.2206    7.3508 H         1 <0>         0.0657 
      30 H5         5.4909   -0.9107    8.3612 H         1 <0>         0.0552 
      31 H6         7.0305   -1.3749    9.1176 H         1 <0>         0.0780 
      32 H7         8.7621    1.8302    8.3878 H         1 <0>         0.0637 
      33 H8         8.9507    0.2139    9.1021 H         1 <0>         0.0637 
      34 H9         8.8143    0.3962    7.3395 H         1 <0>         0.0763 
      35 H10        5.6987    2.1612    7.5223 H         1 <0>         0.4037 
      36 H11        6.1171    2.9289    5.0755 H         1 <0>         0.1033 
      37 H12        6.3798    1.5579    3.9760 H         1 <0>         0.1034 
      38 H13        4.1147    0.9432    4.2504 H         1 <0>         0.4159 
      39 H14        1.7332    2.5562    6.5240 H         1 <0>         0.1087 
      40 H15        1.8187    2.1495    4.7963 H         1 <0>         0.1087 
      41 H16       -1.7132   -1.0644    6.2918 H         1 <0>         0.1854 
@<TRIPOS>BOND
       1        1        2 1        
       2        1       26 1        
       3        1       27 1        
       4        1       28 1        
       5        2        3 1        
       6        2        4 1        
       7        2        5 1        
       8        3       29 1        
       9        3       30 1        
      10        3       31 1        
      11        4       32 1        
      12        4       33 1        
      13        4       34 1        
      14        5        6 am       
      15        5       35 1        
      16        6        7 2        
      17        6        8 1        
      18        8        9 1        
      19        8       36 1        
      20        8       37 1        
      21        9       10 am       
      22        9       38 1        
      23       10       11 2        
      24       10       12 1        
      25       12       13 1        
      26       12       39 1        
      27       12       40 1        
      28       13       14 1        
      29       14       15 2        
      30       14       16 1        
      31       16       21 ar       
      32       16       17 ar       
      33       17       18 ar       
      34       17       41 1        
      35       18       19 ar       
      36       18       25 1        
      37       19       20 ar       
      38       19       24 1        
      39       20       21 ar       
      40       20       23 1        
      41       21       22 1        

