#        1GCZ_R01_S0001_C0000_L00009_S0001_C0006_G0010_E0001.mol2
#        Tue Jun  6 14:10:53 2017
#        Descriptor:     16     2    35    10     7    14
#        Energy - RMSD - RMSD MassCentre:     -49.3254    999.9999    999.9999
#        Receptor:       1  Surface Point:     1  Conformer:     0
#        Ligand:         9  Surface Point:     1  Conformer:     6
#        BUDE Formal Charge: 0
#        ATOM Count: 41
#        Heavy ATOM Count: 25
@<TRIPOS>MOLECULE
ZINC61352350_1GCZ_R01_S0001_C0000_L00009_S0001_C0006_G0010_E0001
 41 41 0 0 0
SMALL
USER_CHARGES
@<TRIPOS>ATOM
       1 C1         0.0895    1.9703    4.3387 C.3       1 <0>        -0.1654 
       2 C2         0.9486    2.1493    5.5870 C.3       1 <0>         0.1681 
       3 C3         0.3297    1.3747    6.7469 C.3       1 <0>        -0.1654 
       4 C4         1.0236    3.6306    5.9459 C.3       1 <0>        -0.1575 
       5 N1         2.3027    1.6401    5.3260 N.am      1 <0>        -0.7174 
       6 C5         3.2292    1.6934    6.2785 C.2       1 <0>         0.5123 
       7 O1         2.9530    2.1690    7.3786 O.2       1 <0>        -0.5302 
       8 C6         4.6196    1.1700    6.0088 C.3       1 <0>         0.1008 
       9 N2         4.5686   -0.2893    5.8397 N.am      1 <0>        -0.7137 
      10 C7         4.1585   -0.8108    4.6869 C.2       1 <0>         0.5216 
      11 O2         3.8224   -0.0716    3.7631 O.2       1 <0>        -0.5149 
      12 C8         4.1061   -2.3098    4.5133 C.3       1 <0>         0.0504 
      13 O3         3.1644   -2.8632    5.4362 O.3       1 <0>        -0.3193 
      14 C9         2.9805   -4.2004    5.4279 C.2       1 <0>         0.5173 
      15 O4         3.6091   -4.8974    4.6484 O.2       1 <0>        -0.4724 
      16 C10        2.0165   -4.8202    6.3643 C.ar      1 <0>        -0.1184 
      17 C11        1.8348   -6.2082    6.3459 C.ar      1 <0>        -0.0438 
      18 C12        0.9280   -6.8149    7.2231 C.ar      1 <0>         0.0822 
      19 C13        0.1968   -6.0379    8.1244 C.ar      1 <0>         0.1048 
      20 C14        0.3766   -4.6498    8.1449 C.ar      1 <0>         0.0533 
      21 C15        1.2832   -4.0424    7.2681 C.ar      1 <0>         0.1585 
      22 F1         1.4364   -2.7017    7.3095 F         1 <0>        -0.0849 
      23 F2        -0.3275   -3.8938    9.0141 F         1 <0>        -0.0975 
      24 F3        -0.6781   -6.6211    8.9712 F         1 <0>        -0.0955 
      25 F4         0.7660   -8.1548    7.1911 F         1 <0>        -0.1036 
      26 H1         0.0266    0.9127    4.0911 H         1 <0>         0.0780 
      27 H2        -0.9089    2.3592    4.5275 H         1 <0>         0.0552 
      28 H3         0.5393    2.5115    3.5090 H         1 <0>         0.0657 
      29 H4         0.9364    1.5134    7.6395 H         1 <0>         0.0657 
      30 H5         0.2898    0.3170    6.4955 H         1 <0>         0.0552 
      31 H6        -0.6774    1.7427    6.9316 H         1 <0>         0.0780 
      32 H7         1.4535    4.1835    5.1134 H         1 <0>         0.0637 
      33 H8         0.0227    4.0041    6.1521 H         1 <0>         0.0637 
      34 H9         1.6480    3.7582    6.8278 H         1 <0>         0.0763 
      35 H10        2.5296    1.2496    4.4226 H         1 <0>         0.4037 
      36 H11        5.0090    1.6274    5.1018 H         1 <0>         0.1033 
      37 H12        5.2680    1.4162    6.8470 H         1 <0>         0.1034 
      38 H13        4.8449   -0.8953    6.5989 H         1 <0>         0.4159 
      39 H14        3.8001   -2.5459    3.4962 H         1 <0>         0.1087 
      40 H15        5.0913   -2.7309    4.7030 H         1 <0>         0.1087 
      41 H16        2.3876   -6.8317    5.6589 H         1 <0>         0.1854 
@<TRIPOS>BOND
       1        1        2 1        
       2        1       26 1        
       3        1       27 1        
       4        1       28 1        
       5        2        3 1        
       6        2        4 1        
       7        2        5 1        
       8        3       29 1        
       9        3       30 1        
      10        3       31 1        
      11        4       32 1        
      12        4       33 1        
      13        4       34 1        
      14        5        6 am       
      15        5       35 1        
      16        6        7 2        
      17        6        8 1        
      18        8        9 1        
      19        8       36 1        
      20        8       37 1        
      21        9       10 am       
      22        9       38 1        
      23       10       11 2        
      24       10       12 1        
      25       12       13 1        
      26       12       39 1        
      27       12       40 1        
      28       13       14 1        
      29       14       15 2        
      30       14       16 1        
      31       16       21 ar       
      32       16       17 ar       
      33       17       18 ar       
      34       17       41 1        
      35       18       19 ar       
      36       18       25 1        
      37       19       20 ar       
      38       19       24 1        
      39       20       21 ar       
      40       20       23 1        
      41       21       22 1        

