#        1GCZ_R01_S0001_C0000_L00009_S0001_C0007_G0010_E0001.mol2
#        Tue Jun  6 09:57:43 2017
#        Descriptor:     14     7    26     9     6    14
#        Energy - RMSD - RMSD MassCentre:     -55.1241    999.9999    999.9999
#        Receptor:       1  Surface Point:     1  Conformer:     0
#        Ligand:         9  Surface Point:     1  Conformer:     7
#        BUDE Formal Charge: 0
#        ATOM Count: 41
#        Heavy ATOM Count: 25
@<TRIPOS>MOLECULE
ZINC61352350_1GCZ_R01_S0001_C0000_L00009_S0001_C0007_G0010_E0001
 41 41 0 0 0
SMALL
USER_CHARGES
@<TRIPOS>ATOM
       1 C1        -0.4356    1.0223    3.9906 C.3       1 <0>        -0.1654 
       2 C2         0.2150    1.1889    5.3608 C.3       1 <0>         0.1681 
       3 C3         0.0749    2.6379    5.8186 C.3       1 <0>        -0.1654 
       4 C4         1.6938    0.8237    5.2706 C.3       1 <0>        -0.1575 
       5 N1        -0.4493    0.3039    6.3285 N.am      1 <0>        -0.7174 
       6 C5        -0.0462    0.2809    7.5957 C.2       1 <0>         0.5123 
       7 O1         0.8830    1.0006    7.9581 O.2       1 <0>        -0.5302 
       8 C6        -0.7295   -0.6287    8.5884 C.3       1 <0>         0.1008 
       9 N2        -0.4431   -2.0293    8.2461 N.am      1 <0>        -0.7137 
      10 C7        -1.1090   -2.6217    7.2589 C.2       1 <0>         0.5216 
      11 O2        -1.9641   -1.9971    6.6330 O.2       1 <0>        -0.5149 
      12 C8        -0.8149   -4.0603    6.9073 C.3       1 <0>         0.0504 
      13 O3         0.5376   -4.1731    6.4568 O.3       1 <0>        -0.3193 
      14 C9         0.9849   -5.3944    6.0954 C.2       1 <0>         0.5173 
      15 O4         0.2411   -6.3594    6.1590 O.2       1 <0>        -0.4724 
      16 C10        2.3772   -5.5620    5.6225 C.ar      1 <0>        -0.1184 
      17 C11        2.8291   -6.8337    5.2506 C.ar      1 <0>        -0.0438 
      18 C12        4.1423   -7.0145    4.8004 C.ar      1 <0>         0.0822 
      19 C13        5.0124   -5.9250    4.7190 C.ar      1 <0>         0.1048 
      20 C14        4.5631   -4.6522    5.0902 C.ar      1 <0>         0.0533 
      21 C15        3.2501   -4.4706    5.5406 C.ar      1 <0>         0.1585 
      22 F1         2.8435   -3.2321    5.8920 F         1 <0>        -0.0849 
      23 F2         5.3998   -3.5954    5.0137 F         1 <0>        -0.0975 
      24 F3         6.2791   -6.0972    4.2852 F         1 <0>        -0.0955 
      25 F4         4.5606   -8.2483    4.4461 F         1 <0>        -0.1036 
      26 H1        -1.4870    1.2949    4.0535 H         1 <0>         0.0780 
      27 H2         0.0646    1.6674    3.2715 H         1 <0>         0.0552 
      28 H3        -0.3475   -0.0141    3.6717 H         1 <0>         0.0657 
      29 H4         0.5502    2.7581    6.7899 H         1 <0>         0.0657 
      30 H5        -0.9798    2.8927    5.8960 H         1 <0>         0.0552 
      31 H6         0.5552    3.2939    5.0956 H         1 <0>         0.0780 
      32 H7         1.7925   -0.2056    4.9323 H         1 <0>         0.0637 
      33 H8         2.1881    1.4875    4.5643 H         1 <0>         0.0637 
      34 H9         2.1532    0.9294    6.2513 H         1 <0>         0.0763 
      35 H10       -1.2123   -0.2871    6.0309 H         1 <0>         0.4037 
      36 H11       -0.3588   -0.4162    9.5889 H         1 <0>         0.1033 
      37 H12       -1.8035   -0.4589    8.5553 H         1 <0>         0.1034 
      38 H13        0.2592   -2.5412    8.7607 H         1 <0>         0.4159 
      39 H14       -0.9582   -4.6846    7.7868 H         1 <0>         0.1087 
      40 H15       -1.4892   -4.3852    6.1177 H         1 <0>         0.1087 
      41 H16        2.1767   -7.6927    5.3041 H         1 <0>         0.1854 
@<TRIPOS>BOND
       1        1        2 1        
       2        1       26 1        
       3        1       27 1        
       4        1       28 1        
       5        2        3 1        
       6        2        4 1        
       7        2        5 1        
       8        3       29 1        
       9        3       30 1        
      10        3       31 1        
      11        4       32 1        
      12        4       33 1        
      13        4       34 1        
      14        5        6 am       
      15        5       35 1        
      16        6        7 2        
      17        6        8 1        
      18        8        9 1        
      19        8       36 1        
      20        8       37 1        
      21        9       10 am       
      22        9       38 1        
      23       10       11 2        
      24       10       12 1        
      25       12       13 1        
      26       12       39 1        
      27       12       40 1        
      28       13       14 1        
      29       14       15 2        
      30       14       16 1        
      31       16       21 ar       
      32       16       17 ar       
      33       17       18 ar       
      34       17       41 1        
      35       18       19 ar       
      36       18       25 1        
      37       19       20 ar       
      38       19       24 1        
      39       20       21 ar       
      40       20       23 1        
      41       21       22 1        

