#        1GCZ_R01_S0001_C0000_L00009_S0001_C0007_G0010_E0001.mol2
#        Tue Jun  6 14:10:55 2017
#        Descriptor:      1    32    26    13     7    14
#        Energy - RMSD - RMSD MassCentre:     -52.3394    999.9999    999.9999
#        Receptor:       1  Surface Point:     1  Conformer:     0
#        Ligand:         9  Surface Point:     1  Conformer:     7
#        BUDE Formal Charge: 0
#        ATOM Count: 41
#        Heavy ATOM Count: 25
@<TRIPOS>MOLECULE
ZINC61352350_1GCZ_R01_S0001_C0000_L00009_S0001_C0007_G0010_E0001
 41 41 0 0 0
SMALL
USER_CHARGES
@<TRIPOS>ATOM
       1 C1         7.9860    0.4853    8.0274 C.3       1 <0>        -0.1654 
       2 C2         8.0947    0.1500    6.5427 C.3       1 <0>         0.1681 
       3 C3         9.5327    0.3589    6.0771 C.3       1 <0>        -0.1654 
       4 C4         7.1638    1.0591    5.7456 C.3       1 <0>        -0.1575 
       5 N1         7.7101   -1.2526    6.3286 N.am      1 <0>        -0.7174 
       6 C5         7.7291   -1.7685    5.1031 C.2       1 <0>         0.5123 
       7 O1         8.0687   -1.0718    4.1481 O.2       1 <0>        -0.5302 
       8 C6         7.3338   -3.2093    4.8849 C.3       1 <0>         0.1008 
       9 N2         5.8996   -3.3706    5.1639 N.am      1 <0>        -0.7137 
      10 C7         5.4723   -3.4534    6.4207 C.2       1 <0>         0.5216 
      11 O2         6.2776   -3.3949    7.3486 O.2       1 <0>        -0.5149 
      12 C8         3.9991   -3.6191    6.7074 C.3       1 <0>         0.0504 
      13 O3         3.2899   -2.4719    6.2322 O.3       1 <0>        -0.3193 
      14 C9         1.9511   -2.4402    6.4016 C.2       1 <0>         0.5173 
      15 O4         1.3832   -3.3726    6.9463 O.2       1 <0>        -0.4724 
      16 C10        1.1729   -1.2743    5.9266 C.ar      1 <0>        -0.1184 
      17 C11       -0.2150   -1.2534    6.1082 C.ar      1 <0>        -0.0438 
      18 C12       -0.9701   -0.1604    5.6665 C.ar      1 <0>         0.0822 
      19 C13       -0.3425    0.9188    5.0403 C.ar      1 <0>         0.1048 
      20 C14        1.0453    0.9004    4.8574 C.ar      1 <0>         0.0533 
      21 C15        1.8010   -0.1921    5.2988 C.ar      1 <0>         0.1585 
      22 F1         3.1377   -0.1832    5.1094 F         1 <0>        -0.0849 
      23 F2         1.6572    1.9409    4.2527 F         1 <0>        -0.0975 
      24 F3        -1.0689    1.9737    4.6135 F         1 <0>        -0.0955 
      25 F4        -2.3076   -0.1576    5.8502 F         1 <0>        -0.1036 
      26 H1         8.6594   -0.1551    8.5934 H         1 <0>         0.0780 
      27 H2         8.2578    1.5270    8.1842 H         1 <0>         0.0552 
      28 H3         6.9635    0.3224    8.3614 H         1 <0>         0.0657 
      29 H4         9.6061    0.1317    5.0156 H         1 <0>         0.0657 
      30 H5        10.1936   -0.2998    6.6363 H         1 <0>         0.0552 
      31 H6         9.8217    1.3939    6.2477 H         1 <0>         0.0780 
      32 H7         6.1404    0.9183    6.0870 H         1 <0>         0.0637 
      33 H8         7.4569    2.0964    5.8935 H         1 <0>         0.0637 
      34 H9         7.2317    0.8094    4.6887 H         1 <0>         0.0763 
      35 H10        7.4312   -1.8248    7.1128 H         1 <0>         0.4037 
      36 H11        7.5367   -3.4881    3.8530 H         1 <0>         0.1033 
      37 H12        7.9079   -3.8475    5.5531 H         1 <0>         0.1034 
      38 H13        5.2393   -3.4186    4.4012 H         1 <0>         0.4159 
      39 H14        3.6300   -4.5095    6.2026 H         1 <0>         0.1087 
      40 H15        3.8483   -3.7211    7.7800 H         1 <0>         0.1087 
      41 H16       -0.7248   -2.0749    6.5894 H         1 <0>         0.1854 
@<TRIPOS>BOND
       1        1        2 1        
       2        1       26 1        
       3        1       27 1        
       4        1       28 1        
       5        2        3 1        
       6        2        4 1        
       7        2        5 1        
       8        3       29 1        
       9        3       30 1        
      10        3       31 1        
      11        4       32 1        
      12        4       33 1        
      13        4       34 1        
      14        5        6 am       
      15        5       35 1        
      16        6        7 2        
      17        6        8 1        
      18        8        9 1        
      19        8       36 1        
      20        8       37 1        
      21        9       10 am       
      22        9       38 1        
      23       10       11 2        
      24       10       12 1        
      25       12       13 1        
      26       12       39 1        
      27       12       40 1        
      28       13       14 1        
      29       14       15 2        
      30       14       16 1        
      31       16       21 ar       
      32       16       17 ar       
      33       17       18 ar       
      34       17       41 1        
      35       18       19 ar       
      36       18       25 1        
      37       19       20 ar       
      38       19       24 1        
      39       20       21 ar       
      40       20       23 1        
      41       21       22 1        

