#        1GCZ_R01_S0001_C0000_L00009_S0001_C0008_G0010_E0001.mol2
#        Tue Jun  6 09:57:44 2017
#        Descriptor:     20    34    20     9     9    15
#        Energy - RMSD - RMSD MassCentre:     -53.9131    999.9999    999.9999
#        Receptor:       1  Surface Point:     1  Conformer:     0
#        Ligand:         9  Surface Point:     1  Conformer:     8
#        BUDE Formal Charge: 0
#        ATOM Count: 41
#        Heavy ATOM Count: 25
@<TRIPOS>MOLECULE
ZINC61352350_1GCZ_R01_S0001_C0000_L00009_S0001_C0008_G0010_E0001
 41 41 0 0 0
SMALL
USER_CHARGES
@<TRIPOS>ATOM
       1 C1         2.4350    3.5564    7.8241 C.3       1 <0>        -0.1654 
       2 C2         0.9830    3.3743    8.2566 C.3       1 <0>         0.1681 
       3 C3         0.3948    4.7264    8.6494 C.3       1 <0>        -0.1654 
       4 C4         0.9219    2.4259    9.4504 C.3       1 <0>        -0.1575 
       5 N1         0.2081    2.8089    7.1426 N.am      1 <0>        -0.7174 
       6 C5        -1.0903    2.5633    7.2917 C.2       1 <0>         0.5123 
       7 O1        -1.6433    2.8095    8.3624 O.2       1 <0>        -0.5302 
       8 C6        -1.8847    1.9826    6.1465 C.3       1 <0>         0.1008 
       9 N2        -1.4343    0.6077    5.8864 N.am      1 <0>        -0.7137 
      10 C7        -1.8494   -0.3864    6.6664 C.2       1 <0>         0.5216 
      11 O2        -2.6100   -0.1547    7.6049 O.2       1 <0>        -0.5149 
      12 C8        -1.3867   -1.7986    6.3991 C.3       1 <0>         0.0504 
      13 O3         0.0322   -1.8730    6.5605 O.3       1 <0>        -0.3193 
      14 C9         0.8034   -1.1423    5.7277 C.2       1 <0>         0.5173 
      15 O4         0.2850   -0.4463    4.8703 O.2       1 <0>        -0.4724 
      16 C10        2.2772   -1.1860    5.8554 C.ar      1 <0>        -0.1184 
      17 C11        2.8585   -1.9891    6.8438 C.ar      1 <0>        -0.0438 
      18 C12        4.2505   -2.0452    6.9821 C.ar      1 <0>         0.0822 
      19 C13        5.0704   -1.2988    6.1329 C.ar      1 <0>         0.1048 
      20 C14        4.4918   -0.4948    5.1436 C.ar      1 <0>         0.0533 
      21 C15        3.1000   -0.4383    5.0048 C.ar      1 <0>         0.1585 
      22 F1         2.5690    0.3453    4.0422 F         1 <0>        -0.0849 
      23 F2         5.2796    0.2289    4.3200 F         1 <0>        -0.0975 
      24 F3         6.4130   -1.3514    6.2645 F         1 <0>        -0.0955 
      25 F4         4.7933   -2.8251    7.9409 F         1 <0>        -0.1036 
      26 H1         2.4783    4.2425    6.9808 H         1 <0>         0.0780 
      27 H2         3.0113    3.9624    8.6528 H         1 <0>         0.0552 
      28 H3         2.8488    2.5939    7.5310 H         1 <0>         0.0657 
      29 H4        -0.6365    4.5934    8.9694 H         1 <0>         0.0657 
      30 H5         0.4261    5.3972    7.7935 H         1 <0>         0.0552 
      31 H6         0.9763    5.1509    9.4652 H         1 <0>         0.0780 
      32 H7         1.3528    1.4662    9.1728 H         1 <0>         0.0637 
      33 H8         1.4843    2.8507   10.2792 H         1 <0>         0.0637 
      34 H9        -0.1151    2.2858    9.7487 H         1 <0>         0.0763 
      35 H10        0.6622    2.6068    6.2633 H         1 <0>         0.4037 
      36 H11       -2.9414    1.9758    6.4056 H         1 <0>         0.1033 
      37 H12       -1.7330    2.5892    5.2563 H         1 <0>         0.1034 
      38 H13       -0.8098    0.4187    5.1155 H         1 <0>         0.4159 
      39 H14       -1.8683   -2.4763    7.1010 H         1 <0>         0.1087 
      40 H15       -1.6521   -2.0802    5.3823 H         1 <0>         0.1087 
      41 H16        2.2472   -2.5761    7.5132 H         1 <0>         0.1854 
@<TRIPOS>BOND
       1        1        2 1        
       2        1       26 1        
       3        1       27 1        
       4        1       28 1        
       5        2        3 1        
       6        2        4 1        
       7        2        5 1        
       8        3       29 1        
       9        3       30 1        
      10        3       31 1        
      11        4       32 1        
      12        4       33 1        
      13        4       34 1        
      14        5        6 am       
      15        5       35 1        
      16        6        7 2        
      17        6        8 1        
      18        8        9 1        
      19        8       36 1        
      20        8       37 1        
      21        9       10 am       
      22        9       38 1        
      23       10       11 2        
      24       10       12 1        
      25       12       13 1        
      26       12       39 1        
      27       12       40 1        
      28       13       14 1        
      29       14       15 2        
      30       14       16 1        
      31       16       21 ar       
      32       16       17 ar       
      33       17       18 ar       
      34       17       41 1        
      35       18       19 ar       
      36       18       25 1        
      37       19       20 ar       
      38       19       24 1        
      39       20       21 ar       
      40       20       23 1        
      41       21       22 1        

