#        1GCZ_R01_S0001_C0000_L00009_S0001_C0008_G0010_E0001.mol2
#        Tue Jun  6 14:10:57 2017
#        Descriptor:      8    31    16     8     8    14
#        Energy - RMSD - RMSD MassCentre:     -57.6397    999.9999    999.9999
#        Receptor:       1  Surface Point:     1  Conformer:     0
#        Ligand:         9  Surface Point:     1  Conformer:     8
#        BUDE Formal Charge: 0
#        ATOM Count: 41
#        Heavy ATOM Count: 25
@<TRIPOS>MOLECULE
ZINC61352350_1GCZ_R01_S0001_C0000_L00009_S0001_C0008_G0010_E0001
 41 41 0 0 0
SMALL
USER_CHARGES
@<TRIPOS>ATOM
       1 C1        -0.0857   -0.9990    8.8755 C.3       1 <0>        -0.1654 
       2 C2        -1.0077   -1.6608    7.8555 C.3       1 <0>         0.1681 
       3 C3        -2.1215   -2.4071    8.5842 C.3       1 <0>        -0.1654 
       4 C4        -0.2066   -2.6435    7.0065 C.3       1 <0>        -0.1575 
       5 N1        -1.5960   -0.6307    6.9872 N.am      1 <0>        -0.7174 
       6 C5        -2.4375   -0.9781    6.0179 C.2       1 <0>         0.5123 
       7 O1        -2.7239   -2.1621    5.8477 O.2       1 <0>        -0.5302 
       8 C6        -3.0408    0.0811    5.1269 C.3       1 <0>         0.1008 
       9 N2        -1.9871    0.6774    4.2934 N.am      1 <0>        -0.7137 
      10 C7        -1.5484    0.0337    3.2154 C.2       1 <0>         0.5216 
      11 O2        -2.0247   -1.0603    2.9166 O.2       1 <0>        -0.5149 
      12 C8        -0.4659    0.6463    2.3592 C.3       1 <0>         0.0504 
      13 O3         0.7320    0.7781    3.1290 O.3       1 <0>        -0.3193 
      14 C9         0.7060    1.5910    4.2064 C.2       1 <0>         0.5173 
      15 O4        -0.3188    2.1857    4.4968 O.2       1 <0>        -0.4724 
      16 C10        1.9209    1.7602    5.0346 C.ar      1 <0>        -0.1184 
      17 C11        3.0900    1.0716    4.6896 C.ar      1 <0>        -0.0438 
      18 C12        4.2503    1.2172    5.4592 C.ar      1 <0>         0.0822 
      19 C13        4.2495    2.0523    6.5787 C.ar      1 <0>         0.1048 
      20 C14        3.0818    2.7420    6.9260 C.ar      1 <0>         0.0533 
      21 C15        1.9212    2.5969    6.1569 C.ar      1 <0>         0.1585 
      22 F1         0.8094    3.2739    6.5147 F         1 <0>        -0.0849 
      23 F2         3.0752    3.5505    8.0071 F         1 <0>        -0.0975 
      24 F3         5.3674    2.1940    7.3222 F         1 <0>        -0.0955 
      25 F4         5.3683    0.5453    5.1114 F         1 <0>        -0.1036 
      26 H1        -0.6605   -0.3078    9.4883 H         1 <0>         0.0780 
      27 H2         0.3600   -1.7625    9.5096 H         1 <0>         0.0552 
      28 H3         0.6997   -0.4556    8.3544 H         1 <0>         0.0657 
      29 H4        -2.7709   -2.8889    7.8562 H         1 <0>         0.0657 
      30 H5        -2.7006   -1.7032    9.1781 H         1 <0>         0.0552 
      31 H6        -1.6855   -3.1607    9.2367 H         1 <0>         0.0780 
      32 H7         0.5948   -2.1123    6.4972 H         1 <0>         0.0637 
      33 H8         0.2177   -3.4134    7.6475 H         1 <0>         0.0637 
      34 H9        -0.8623   -3.1041    6.2703 H         1 <0>         0.0763 
      35 H10       -1.3608    0.3416    7.1269 H         1 <0>         0.4037 
      36 H11       -3.7970   -0.3706    4.4883 H         1 <0>         0.1033 
      37 H12       -3.4986    0.8534    5.7414 H         1 <0>         0.1034 
      38 H13       -1.5967    1.5757    4.5397 H         1 <0>         0.4159 
      39 H14       -0.2774    0.0052    1.5006 H         1 <0>         0.1087 
      40 H15       -0.7874    1.6275    2.0163 H         1 <0>         0.1087 
      41 H16        3.1173    0.4198    3.8290 H         1 <0>         0.1854 
@<TRIPOS>BOND
       1        1        2 1        
       2        1       26 1        
       3        1       27 1        
       4        1       28 1        
       5        2        3 1        
       6        2        4 1        
       7        2        5 1        
       8        3       29 1        
       9        3       30 1        
      10        3       31 1        
      11        4       32 1        
      12        4       33 1        
      13        4       34 1        
      14        5        6 am       
      15        5       35 1        
      16        6        7 2        
      17        6        8 1        
      18        8        9 1        
      19        8       36 1        
      20        8       37 1        
      21        9       10 am       
      22        9       38 1        
      23       10       11 2        
      24       10       12 1        
      25       12       13 1        
      26       12       39 1        
      27       12       40 1        
      28       13       14 1        
      29       14       15 2        
      30       14       16 1        
      31       16       21 ar       
      32       16       17 ar       
      33       17       18 ar       
      34       17       41 1        
      35       18       19 ar       
      36       18       25 1        
      37       19       20 ar       
      38       19       24 1        
      39       20       21 ar       
      40       20       23 1        
      41       21       22 1        

