#        1GCZ_R01_S0001_C0000_L00009_S0001_C0009_G0010_E0001.mol2
#        Tue Jun  6 09:57:44 2017
#        Descriptor:     26    11     6     7     8    13
#        Energy - RMSD - RMSD MassCentre:     -57.5719    999.9999    999.9999
#        Receptor:       1  Surface Point:     1  Conformer:     0
#        Ligand:         9  Surface Point:     1  Conformer:     9
#        BUDE Formal Charge: 0
#        ATOM Count: 41
#        Heavy ATOM Count: 25
@<TRIPOS>MOLECULE
ZINC61352350_1GCZ_R01_S0001_C0000_L00009_S0001_C0009_G0010_E0001
 41 41 0 0 0
SMALL
USER_CHARGES
@<TRIPOS>ATOM
       1 C1        -1.1051    1.8140    0.0008 C.3       1 <0>        -0.1654 
       2 C2        -0.5751    0.8575    1.0652 C.3       1 <0>         0.1681 
       3 C3         0.8756    1.2056    1.3861 C.3       1 <0>        -0.1654 
       4 C4        -0.6525   -0.5755    0.5466 C.3       1 <0>        -0.1575 
       5 N1        -1.3888    0.9816    2.2831 N.am      1 <0>        -0.7174 
       6 C5        -1.1085    0.2384    3.3497 C.2       1 <0>         0.5123 
       7 O1        -0.1678   -0.5533    3.3171 O.2       1 <0>        -0.5302 
       8 C6        -1.9453    0.3671    4.5999 C.3       1 <0>         0.1008 
       9 N2        -1.7298    1.6922    5.1985 N.am      1 <0>        -0.7137 
      10 C7        -0.6359    1.9267    5.9177 C.2       1 <0>         0.5216 
      11 O2        -0.4556    3.0356    6.4186 O.2       1 <0>        -0.5149 
      12 C8         0.3839    0.8315    6.1188 C.3       1 <0>         0.0504 
      13 O3        -0.2142   -0.2490    6.8397 O.3       1 <0>        -0.3193 
      14 C9        -0.6479   -0.0092    8.0954 C.2       1 <0>         0.5173 
      15 O4        -0.5237    1.1031    8.5812 O.2       1 <0>        -0.4724 
      16 C10       -1.2738   -1.0955    8.8817 C.ar      1 <0>        -0.1184 
      17 C11       -1.7196   -0.8340   10.1828 C.ar      1 <0>        -0.0438 
      18 C12       -2.3145   -1.8471   10.9441 C.ar      1 <0>         0.0822 
      19 C13       -2.4676   -3.1284   10.4095 C.ar      1 <0>         0.1048 
      20 C14       -2.0227   -3.3926    9.1087 C.ar      1 <0>         0.0533 
      21 C15       -1.4278   -2.3800    8.3469 C.ar      1 <0>         0.1585 
      22 F1        -1.0080   -2.6627    7.0954 F         1 <0>        -0.0849 
      23 F2        -2.1683   -4.6292    8.5869 F         1 <0>        -0.0975 
      24 F3        -3.0411   -4.1068   11.1419 F         1 <0>        -0.0955 
      25 F4        -2.7384   -1.5766   12.1969 F         1 <0>        -0.1036 
      26 H1        -1.0378    2.8363    0.3670 H         1 <0>         0.0780 
      27 H2        -0.5112    1.7126   -0.9050 H         1 <0>         0.0552 
      28 H3        -2.1436    1.5737   -0.2168 H         1 <0>         0.0657 
      29 H4         1.2561    0.5151    2.1359 H         1 <0>         0.0657 
      30 H5         0.9277    2.2226    1.7689 H         1 <0>         0.0552 
      31 H6         1.4754    1.1265    0.4818 H         1 <0>         0.0780 
      32 H7        -1.6855   -0.8183    0.3065 H         1 <0>         0.0637 
      33 H8        -0.0395   -0.6705   -0.3472 H         1 <0>         0.0637 
      34 H9        -0.2875   -1.2575    1.3118 H         1 <0>         0.0763 
      35 H10       -2.1613    1.6318    2.3099 H         1 <0>         0.4037 
      36 H11       -2.9966    0.2499    4.3456 H         1 <0>         0.1033 
      37 H12       -1.6554   -0.4040    5.3106 H         1 <0>         0.1034 
      38 H13       -2.4127    2.4241    5.0633 H         1 <0>         0.4159 
      39 H14        0.7284    0.4754    5.1502 H         1 <0>         0.1087 
      40 H15        1.2279    1.2220    6.6835 H         1 <0>         0.1087 
      41 H16       -1.6132    0.1479   10.6197 H         1 <0>         0.1854 
@<TRIPOS>BOND
       1        1        2 1        
       2        1       26 1        
       3        1       27 1        
       4        1       28 1        
       5        2        3 1        
       6        2        4 1        
       7        2        5 1        
       8        3       29 1        
       9        3       30 1        
      10        3       31 1        
      11        4       32 1        
      12        4       33 1        
      13        4       34 1        
      14        5        6 am       
      15        5       35 1        
      16        6        7 2        
      17        6        8 1        
      18        8        9 1        
      19        8       36 1        
      20        8       37 1        
      21        9       10 am       
      22        9       38 1        
      23       10       11 2        
      24       10       12 1        
      25       12       13 1        
      26       12       39 1        
      27       12       40 1        
      28       13       14 1        
      29       14       15 2        
      30       14       16 1        
      31       16       21 ar       
      32       16       17 ar       
      33       17       18 ar       
      34       17       41 1        
      35       18       19 ar       
      36       18       25 1        
      37       19       20 ar       
      38       19       24 1        
      39       20       21 ar       
      40       20       23 1        
      41       21       22 1        

