#        1GCZ_R01_S0001_C0000_L00009_S0001_C0009_G0010_E0001.mol2
#        Tue Jun  6 14:10:59 2017
#        Descriptor:     11    11    14     9     8    12
#        Energy - RMSD - RMSD MassCentre:     -56.8087    999.9999    999.9999
#        Receptor:       1  Surface Point:     1  Conformer:     0
#        Ligand:         9  Surface Point:     1  Conformer:     9
#        BUDE Formal Charge: 0
#        ATOM Count: 41
#        Heavy ATOM Count: 25
@<TRIPOS>MOLECULE
ZINC61352350_1GCZ_R01_S0001_C0000_L00009_S0001_C0009_G0010_E0001
 41 41 0 0 0
SMALL
USER_CHARGES
@<TRIPOS>ATOM
       1 C1        -0.4379    2.1501   -0.6479 C.3       1 <0>        -0.1654 
       2 C2        -0.4659    1.0062    0.3617 C.3       1 <0>         0.1681 
       3 C3         0.3234   -0.1783   -0.1883 C.3       1 <0>        -0.1654 
       4 C4        -1.9104    0.5834    0.6127 C.3       1 <0>        -0.1575 
       5 N1         0.1394    1.4534    1.6244 N.am      1 <0>        -0.7174 
       6 C5         0.2239    0.6172    2.6551 C.2       1 <0>         0.5123 
       7 O1        -0.2047   -0.5310    2.5518 O.2       1 <0>        -0.5302 
       8 C6         0.8459    1.0781    3.9515 C.3       1 <0>         0.1008 
       9 N2         2.2824    1.3144    3.7479 N.am      1 <0>        -0.7137 
      10 C7         3.1272    0.2877    3.7183 C.2       1 <0>         0.5216 
      11 O2         4.3292    0.4854    3.5480 O.2       1 <0>        -0.5149 
      12 C8         2.6101   -1.1201    3.8939 C.3       1 <0>         0.0504 
      13 O3         2.0305   -1.2554    5.1941 O.3       1 <0>        -0.3193 
      14 C9         2.8356   -1.0960    6.2660 C.2       1 <0>         0.5173 
      15 O4         4.0189   -0.8445    6.1075 O.2       1 <0>        -0.4724 
      16 C10        2.2823   -1.2265    7.6324 C.ar      1 <0>        -0.1184 
      17 C11        3.1276   -1.0589    8.7357 C.ar      1 <0>        -0.0438 
      18 C12        2.6250   -1.1780   10.0368 C.ar      1 <0>         0.0822 
      19 C13        1.2739   -1.4655   10.2435 C.ar      1 <0>         0.1048 
      20 C14        0.4264   -1.6335    9.1420 C.ar      1 <0>         0.0533 
      21 C15        0.9284   -1.5146    7.8406 C.ar      1 <0>         0.1585 
      22 F1         0.0886   -1.6816    6.7969 F         1 <0>        -0.0849 
      23 F2        -0.8805   -1.9114    9.3358 F         1 <0>        -0.0975 
      24 F3         0.7871   -1.5806   11.4974 F         1 <0>        -0.0955 
      25 F4         3.4549   -1.0131   11.0888 F         1 <0>        -0.1036 
      26 H1         0.5933    2.4422   -0.8354 H         1 <0>         0.0780 
      27 H2        -0.8978    1.8233   -1.5781 H         1 <0>         0.0552 
      28 H3        -0.9891    2.9988   -0.2486 H         1 <0>         0.0657 
      29 H4         0.2921   -0.9976    0.5269 H         1 <0>         0.0657 
      30 H5         1.3563    0.1204   -0.3536 H         1 <0>         0.0552 
      31 H6        -0.1167   -0.5009   -1.1296 H         1 <0>         0.0780 
      32 H7        -2.4751    1.4320    0.9931 H         1 <0>         0.0637 
      33 H8        -2.3542    0.2398   -0.3193 H         1 <0>         0.0637 
      34 H9        -1.9299   -0.2227    1.3434 H         1 <0>         0.0763 
      35 H10        0.4913    2.3963    1.7093 H         1 <0>         0.4037 
      36 H11        0.3681    2.0006    4.2744 H         1 <0>         0.1033 
      37 H12        0.7079    0.3121    4.7117 H         1 <0>         0.1034 
      38 H13        2.6271    2.2565    3.6306 H         1 <0>         0.4159 
      39 H14        1.8562   -1.3258    3.1368 H         1 <0>         0.1087 
      40 H15        3.4330   -1.8239    3.7878 H         1 <0>         0.1087 
      41 H16        4.1761   -0.8361    8.6035 H         1 <0>         0.1854 
@<TRIPOS>BOND
       1        1        2 1        
       2        1       26 1        
       3        1       27 1        
       4        1       28 1        
       5        2        3 1        
       6        2        4 1        
       7        2        5 1        
       8        3       29 1        
       9        3       30 1        
      10        3       31 1        
      11        4       32 1        
      12        4       33 1        
      13        4       34 1        
      14        5        6 am       
      15        5       35 1        
      16        6        7 2        
      17        6        8 1        
      18        8        9 1        
      19        8       36 1        
      20        8       37 1        
      21        9       10 am       
      22        9       38 1        
      23       10       11 2        
      24       10       12 1        
      25       12       13 1        
      26       12       39 1        
      27       12       40 1        
      28       13       14 1        
      29       14       15 2        
      30       14       16 1        
      31       16       21 ar       
      32       16       17 ar       
      33       17       18 ar       
      34       17       41 1        
      35       18       19 ar       
      36       18       25 1        
      37       19       20 ar       
      38       19       24 1        
      39       20       21 ar       
      40       20       23 1        
      41       21       22 1        

