#        1GCZ_R01_S0001_C0000_L00009_S0001_C0010_G0010_E0001.mol2
#        Tue Jun  6 09:57:45 2017
#        Descriptor:     29     8     3     8     9     9
#        Energy - RMSD - RMSD MassCentre:     -77.8383    999.9999    999.9999
#        Receptor:       1  Surface Point:     1  Conformer:     0
#        Ligand:         9  Surface Point:     1  Conformer:    10
#        BUDE Formal Charge: 0
#        ATOM Count: 41
#        Heavy ATOM Count: 25
@<TRIPOS>MOLECULE
ZINC61352350_1GCZ_R01_S0001_C0000_L00009_S0001_C0010_G0010_E0001
 41 41 0 0 0
SMALL
USER_CHARGES
@<TRIPOS>ATOM
       1 C1        -1.2107    1.4927   -4.1560 C.3       1 <0>        -0.1654 
       2 C2        -0.3065    0.9820   -3.0379 C.3       1 <0>         0.1681 
       3 C3         1.1412    1.3560   -3.3423 C.3       1 <0>        -0.1654 
       4 C4        -0.4301   -0.5355   -2.9356 C.3       1 <0>        -0.1575 
       5 N1        -0.7119    1.5928   -1.7637 N.am      1 <0>        -0.7174 
       6 C5        -0.0603    1.2922   -0.6441 C.2       1 <0>         0.5123 
       7 O1         0.8823    0.5026   -0.6747 O.2       1 <0>        -0.5302 
       8 C6        -0.4780    1.9204    0.6639 C.3       1 <0>         0.1008 
       9 N2        -1.8053    1.4176    1.0460 N.am      1 <0>        -0.7137 
      10 C7        -1.9266    0.2130    1.5965 C.2       1 <0>         0.5216 
      11 O2        -3.0373   -0.2076    1.9163 O.2       1 <0>        -0.5149 
      12 C8        -0.7006   -0.6374    1.8285 C.3       1 <0>         0.0504 
      13 O3         0.1672    0.0215    2.7546 O.3       1 <0>        -0.3193 
      14 C9        -0.2892    0.2371    4.0066 C.2       1 <0>         0.5173 
      15 O4        -1.4114   -0.1272    4.3175 O.2       1 <0>        -0.4724 
      16 C10        0.5718    0.9153    5.0011 C.ar      1 <0>        -0.1184 
      17 C11        0.0868    1.1331    6.2962 C.ar      1 <0>        -0.0438 
      18 C12        0.8846    1.7726    7.2524 C.ar      1 <0>         0.0822 
      19 C13        2.1726    2.1987    6.9200 C.ar      1 <0>         0.1048 
      20 C14        2.6600    1.9822    5.6257 C.ar      1 <0>         0.0533 
      21 C15        1.8628    1.3427    4.6691 C.ar      1 <0>         0.1585 
      22 F1         2.3582    1.1469    3.4286 F         1 <0>        -0.0849 
      23 F2         3.9042    2.3920    5.2988 F         1 <0>        -0.0975 
      24 F3         2.9435    2.8157    7.8406 F         1 <0>        -0.0955 
      25 F4         0.4003    1.9741    8.4963 F         1 <0>        -0.1036 
      26 H1        -1.1122    2.5733   -4.2362 H         1 <0>         0.0780 
      27 H2        -0.9192    1.0306   -5.0969 H         1 <0>         0.0552 
      28 H3        -2.2440    1.2377   -3.9309 H         1 <0>         0.0657 
      29 H4         1.7862    0.9804   -2.5507 H         1 <0>         0.0657 
      30 H5         1.2307    2.4386   -3.4011 H         1 <0>         0.0552 
      31 H6         1.4371    0.9148   -4.2918 H         1 <0>         0.0780 
      32 H7        -1.4649   -0.8015   -2.7309 H         1 <0>         0.0637 
      33 H8        -0.1173   -0.9882   -3.8742 H         1 <0>         0.0637 
      34 H9         0.2043   -0.8967   -2.1287 H         1 <0>         0.0763 
      35 H10       -1.4860    2.2412   -1.7385 H         1 <0>         0.4037 
      36 H11        0.2441    1.6630    1.4360 H         1 <0>         0.1033 
      37 H12       -0.5179    3.0015    0.5498 H         1 <0>         0.1034 
      38 H13       -2.6247    1.9873    0.8904 H         1 <0>         0.4159 
      39 H14       -1.0002   -1.6015    2.2340 H         1 <0>         0.1087 
      40 H15       -0.1795   -0.7862    0.8850 H         1 <0>         0.1087 
      41 H16       -0.9053    0.8135    6.5789 H         1 <0>         0.1854 
@<TRIPOS>BOND
       1        1        2 1        
       2        1       26 1        
       3        1       27 1        
       4        1       28 1        
       5        2        3 1        
       6        2        4 1        
       7        2        5 1        
       8        3       29 1        
       9        3       30 1        
      10        3       31 1        
      11        4       32 1        
      12        4       33 1        
      13        4       34 1        
      14        5        6 am       
      15        5       35 1        
      16        6        7 2        
      17        6        8 1        
      18        8        9 1        
      19        8       36 1        
      20        8       37 1        
      21        9       10 am       
      22        9       38 1        
      23       10       11 2        
      24       10       12 1        
      25       12       13 1        
      26       12       39 1        
      27       12       40 1        
      28       13       14 1        
      29       14       15 2        
      30       14       16 1        
      31       16       21 ar       
      32       16       17 ar       
      33       17       18 ar       
      34       17       41 1        
      35       18       19 ar       
      36       18       25 1        
      37       19       20 ar       
      38       19       24 1        
      39       20       21 ar       
      40       20       23 1        
      41       21       22 1        

