#        1GCZ_R01_S0001_C0000_L00009_S0001_C0010_G0010_E0001.mol2
#        Tue Jun  6 14:11:01 2017
#        Descriptor:     29     8     2     8     9     9
#        Energy - RMSD - RMSD MassCentre:     -73.5818    999.9999    999.9999
#        Receptor:       1  Surface Point:     1  Conformer:     0
#        Ligand:         9  Surface Point:     1  Conformer:    10
#        BUDE Formal Charge: 0
#        ATOM Count: 41
#        Heavy ATOM Count: 25
@<TRIPOS>MOLECULE
ZINC61352350_1GCZ_R01_S0001_C0000_L00009_S0001_C0010_G0010_E0001
 41 41 0 0 0
SMALL
USER_CHARGES
@<TRIPOS>ATOM
       1 C1        -1.1067    1.6954   -4.1560 C.3       1 <0>        -0.1654 
       2 C2        -0.3050    1.0355   -3.0379 C.3       1 <0>         0.1681 
       3 C3         1.1857    1.1525   -3.3423 C.3       1 <0>        -0.1654 
       4 C4        -0.6902   -0.4375   -2.9356 C.3       1 <0>        -0.1575 
       5 N1        -0.5982    1.7074   -1.7637 N.am      1 <0>        -0.7174 
       6 C5        -0.0086    1.2982   -0.6441 C.2       1 <0>         0.5123 
       7 O1         0.7825    0.3569   -0.6747 O.2       1 <0>        -0.5302 
       8 C6        -0.3109    1.9894    0.6639 C.3       1 <0>         0.1008 
       9 N2        -1.7054    1.7248    1.0460 N.am      1 <0>        -0.7137 
      10 C7        -2.0340    0.5595    1.5965 C.2       1 <0>         0.5216 
      11 O2        -3.2009    0.3382    1.9163 O.2       1 <0>        -0.5149 
      12 C8        -0.9743   -0.4909    1.8285 C.3       1 <0>         0.0504 
      13 O3        -0.0053    0.0073    2.7546 O.3       1 <0>        -0.3193 
      14 C9        -0.4173    0.2990    4.0066 C.2       1 <0>         0.5173 
      15 O4        -1.5857    0.1351    4.3175 O.2       1 <0>        -0.4724 
      16 C10        0.5484    0.8173    5.0011 C.ar      1 <0>        -0.1184 
      17 C11        0.1086    1.1160    6.2962 C.ar      1 <0>        -0.0438 
      18 C12        1.0053    1.6073    7.2524 C.ar      1 <0>         0.0822 
      19 C13        2.3477    1.8032    6.9200 C.ar      1 <0>         0.1048 
      20 C14        2.7901    1.5053    5.6257 C.ar      1 <0>         0.0533 
      21 C15        1.8940    1.0140    4.6691 C.ar      1 <0>         0.1585 
      22 F1         2.3479    0.7352    3.4286 F         1 <0>        -0.0849 
      23 F2         4.0866    1.6929    5.2988 F         1 <0>        -0.0975 
      24 F3         3.2141    2.2770    7.8406 F         1 <0>        -0.0955 
      25 F4         0.5633    1.8898    8.4963 F         1 <0>        -0.1036 
      26 H1        -0.8221    2.7425   -4.2362 H         1 <0>         0.0780 
      27 H2        -0.8999    1.1897   -5.0969 H         1 <0>         0.0552 
      28 H3        -2.1687    1.6238   -3.9309 H         1 <0>         0.0657 
      29 H4         1.7557    0.6705   -2.5507 H         1 <0>         0.0657 
      30 H5         1.4619    2.2030   -3.4011 H         1 <0>         0.0552 
      31 H6         1.4005    0.6665   -4.2918 H         1 <0>         0.0780 
      32 H7        -1.7555   -0.5197   -2.7309 H         1 <0>         0.0637 
      33 H8        -0.4607   -0.9376   -3.8742 H         1 <0>         0.0637 
      34 H9        -0.1282   -0.9034   -2.1287 H         1 <0>         0.0763 
      35 H10       -1.2479    2.4803   -1.7385 H         1 <0>         0.4037 
      36 H11        0.3555    1.6105    1.4360 H         1 <0>         0.1033 
      37 H12       -0.1625    3.0610    0.5498 H         1 <0>         0.1034 
      38 H13       -2.4134    2.4281    0.8904 H         1 <0>         0.4159 
      39 H14       -1.4367   -1.3883    2.2340 H         1 <0>         0.1087 
      40 H15       -0.4870   -0.7279    0.8850 H         1 <0>         0.1087 
      41 H16       -0.9239    0.9735    6.5789 H         1 <0>         0.1854 
@<TRIPOS>BOND
       1        1        2 1        
       2        1       26 1        
       3        1       27 1        
       4        1       28 1        
       5        2        3 1        
       6        2        4 1        
       7        2        5 1        
       8        3       29 1        
       9        3       30 1        
      10        3       31 1        
      11        4       32 1        
      12        4       33 1        
      13        4       34 1        
      14        5        6 am       
      15        5       35 1        
      16        6        7 2        
      17        6        8 1        
      18        8        9 1        
      19        8       36 1        
      20        8       37 1        
      21        9       10 am       
      22        9       38 1        
      23       10       11 2        
      24       10       12 1        
      25       12       13 1        
      26       12       39 1        
      27       12       40 1        
      28       13       14 1        
      29       14       15 2        
      30       14       16 1        
      31       16       21 ar       
      32       16       17 ar       
      33       17       18 ar       
      34       17       41 1        
      35       18       19 ar       
      36       18       25 1        
      37       19       20 ar       
      38       19       24 1        
      39       20       21 ar       
      40       20       23 1        
      41       21       22 1        

