#        1GCZ_R01_S0001_C0000_L00009_S0001_C0011_G0010_E0001.mol2
#        Tue Jun  6 09:57:46 2017
#        Descriptor:     26    11     8     8     7    11
#        Energy - RMSD - RMSD MassCentre:     -70.7928    999.9999    999.9999
#        Receptor:       1  Surface Point:     1  Conformer:     0
#        Ligand:         9  Surface Point:     1  Conformer:    11
#        BUDE Formal Charge: 0
#        ATOM Count: 41
#        Heavy ATOM Count: 25
@<TRIPOS>MOLECULE
ZINC61352350_1GCZ_R01_S0001_C0000_L00009_S0001_C0011_G0010_E0001
 41 41 0 0 0
SMALL
USER_CHARGES
@<TRIPOS>ATOM
       1 C1        -1.2937    0.9703   -1.6421 C.3       1 <0>        -0.1654 
       2 C2        -0.4685    0.2528   -0.5777 C.3       1 <0>         0.1681 
       3 C3         0.7756    1.0760   -0.2568 C.3       1 <0>        -0.1654 
       4 C4        -0.0512   -1.1203   -1.0963 C.3       1 <0>        -0.1575 
       5 N1        -1.2756    0.0911    0.6402 N.am      1 <0>        -0.7174 
       6 C5        -0.7581   -0.5114    1.7069 C.2       1 <0>         0.5123 
       7 O1         0.3967   -0.9337    1.6743 O.2       1 <0>        -0.5302 
       8 C6        -1.5884   -0.6767    2.9571 C.3       1 <0>         0.1008 
       9 N2        -1.8391    0.6422    3.5556 N.am      1 <0>        -0.7137 
      10 C7        -0.8914    1.2367    4.2748 C.2       1 <0>         0.5216 
      11 O2        -1.1012    2.3403    4.7757 O.2       1 <0>        -0.5149 
      12 C8         0.4415    0.5563    4.4759 C.3       1 <0>         0.0504 
      13 O3         0.2490   -0.6636    5.1968 O.3       1 <0>        -0.3193 
      14 C9         1.3365   -1.4146    5.4723 C.2       1 <0>         0.5173 
      15 O4         2.4407   -1.0452    5.1081 O.2       1 <0>        -0.4724 
      16 C10        1.1884   -2.6855    6.2161 C.ar      1 <0>        -0.1184 
      17 C11        2.3237   -3.4552    6.4957 C.ar      1 <0>        -0.0438 
      18 C12        2.2063   -4.6607    7.1979 C.ar      1 <0>         0.0822 
      19 C13        0.9528   -5.1043    7.6252 C.ar      1 <0>         0.1048 
      20 C14       -0.1843   -4.3366    7.3471 C.ar      1 <0>         0.0533 
      21 C15       -0.0676   -3.1310    6.6449 C.ar      1 <0>         0.1585 
      22 F1        -1.1806   -2.4108    6.3905 F         1 <0>        -0.0849 
      23 F2        -1.3984   -4.7605    7.7577 F         1 <0>        -0.0975 
      24 F3         0.8373   -6.2664    8.3026 F         1 <0>        -0.0955 
      25 F4         3.3122   -5.3897    7.4583 F         1 <0>        -0.1036 
      26 H1        -1.5801    1.9540   -1.2759 H         1 <0>         0.0780 
      27 H2        -0.7010    1.0782   -2.5479 H         1 <0>         0.0552 
      28 H3        -2.1874    0.3893   -1.8597 H         1 <0>         0.0657 
      29 H4         1.3694    0.5573    0.4930 H         1 <0>         0.0657 
      30 H5         0.4767    2.0495    0.1260 H         1 <0>         0.0552 
      31 H6         1.3663    1.2068   -1.1611 H         1 <0>         0.0780 
      32 H7        -0.9388   -1.7017   -1.3364 H         1 <0>         0.0637 
      33 H8         0.5573   -1.0000   -1.9901 H         1 <0>         0.0637 
      34 H9         0.5251   -1.6364   -0.3311 H         1 <0>         0.0763 
      35 H10       -2.2239    0.4378    0.6670 H         1 <0>         0.4037 
      36 H11       -2.5362   -1.1464    2.7027 H         1 <0>         0.1033 
      37 H12       -1.0522   -1.3022    3.6677 H         1 <0>         0.1034 
      38 H13       -2.7311    1.0963    3.4205 H         1 <0>         0.4159 
      39 H14        0.8870    0.3395    3.5073 H         1 <0>         0.1087 
      40 H15        1.1011    1.2119    5.0406 H         1 <0>         0.1087 
      41 H16        3.3045   -3.1348    6.1765 H         1 <0>         0.1854 
@<TRIPOS>BOND
       1        1        2 1        
       2        1       26 1        
       3        1       27 1        
       4        1       28 1        
       5        2        3 1        
       6        2        4 1        
       7        2        5 1        
       8        3       29 1        
       9        3       30 1        
      10        3       31 1        
      11        4       32 1        
      12        4       33 1        
      13        4       34 1        
      14        5        6 am       
      15        5       35 1        
      16        6        7 2        
      17        6        8 1        
      18        8        9 1        
      19        8       36 1        
      20        8       37 1        
      21        9       10 am       
      22        9       38 1        
      23       10       11 2        
      24       10       12 1        
      25       12       13 1        
      26       12       39 1        
      27       12       40 1        
      28       13       14 1        
      29       14       15 2        
      30       14       16 1        
      31       16       21 ar       
      32       16       17 ar       
      33       17       18 ar       
      34       17       41 1        
      35       18       19 ar       
      36       18       25 1        
      37       19       20 ar       
      38       19       24 1        
      39       20       21 ar       
      40       20       23 1        
      41       21       22 1        

