#        1GCZ_R01_S0001_C0000_L00009_S0001_C0011_G0010_E0001.mol2
#        Tue Jun  6 14:11:03 2017
#        Descriptor:      7     9    17     8     8    12
#        Energy - RMSD - RMSD MassCentre:     -63.4770    999.9999    999.9999
#        Receptor:       1  Surface Point:     1  Conformer:     0
#        Ligand:         9  Surface Point:     1  Conformer:    11
#        BUDE Formal Charge: 0
#        ATOM Count: 41
#        Heavy ATOM Count: 25
@<TRIPOS>MOLECULE
ZINC61352350_1GCZ_R01_S0001_C0000_L00009_S0001_C0011_G0010_E0001
 41 41 0 0 0
SMALL
USER_CHARGES
@<TRIPOS>ATOM
       1 C1         0.5758    1.5103   -0.9489 C.3       1 <0>        -0.1654 
       2 C2         0.1000    0.6861    0.2439 C.3       1 <0>         0.1681 
       3 C3         0.7396   -0.6984    0.1943 C.3       1 <0>        -0.1654 
       4 C4        -1.4189    0.5478    0.1943 C.3       1 <0>        -0.1575 
       5 N1         0.4893    1.3604    1.4908 N.am      1 <0>        -0.7174 
       6 C5         0.1774    0.8202    2.6653 C.2       1 <0>         0.5123 
       7 O1        -0.4372   -0.2443    2.7083 O.2       1 <0>        -0.5302 
       8 C6         0.5780    1.5141    3.9451 C.3       1 <0>         0.1008 
       9 N2         2.0416    1.4878    4.0782 N.am      1 <0>        -0.7137 
      10 C7         2.6512    0.3826    4.4975 C.2       1 <0>         0.5216 
      11 O2         3.8759    0.3607    4.6089 O.2       1 <0>        -0.5149 
      12 C8         1.8391   -0.8445    4.8365 C.3       1 <0>         0.0504 
      13 O3         0.9729   -0.5529    5.9362 O.3       1 <0>        -0.3193 
      14 C9         0.1642   -1.5370    6.3835 C.2       1 <0>         0.5173 
      15 O4         0.1877   -2.6345    5.8512 O.2       1 <0>        -0.4724 
      16 C10       -0.7503   -1.2839    7.5193 C.ar      1 <0>        -0.1184 
      17 C11       -1.5838   -2.3125    7.9738 C.ar      1 <0>        -0.0438 
      18 C12       -2.4564   -2.0946    9.0467 C.ar      1 <0>         0.0822 
      19 C13       -2.5012   -0.8466    9.6721 C.ar      1 <0>         0.1048 
      20 C14       -1.6687    0.1839    9.2197 C.ar      1 <0>         0.0533 
      21 C15       -0.7959   -0.0333    8.1469 C.ar      1 <0>         0.1585 
      22 F1        -0.0043    0.9782    7.7313 F         1 <0>        -0.0849 
      23 F2        -1.7078    1.3922    9.8205 F         1 <0>        -0.0975 
      24 F3        -3.3419   -0.6343   10.7069 F         1 <0>        -0.0955 
      25 F4        -3.2529   -3.0984    9.4713 F         1 <0>        -0.1036 
      26 H1         1.6599    1.5977   -0.9192 H         1 <0>         0.0780 
      27 H2         0.2762    1.0181   -1.8717 H         1 <0>         0.0552 
      28 H3         0.1301    2.5018   -0.9047 H         1 <0>         0.0657 
      29 H4         0.3897   -1.2892    1.0383 H         1 <0>         0.0657 
      30 H5         1.8218   -0.5992    0.2439 H         1 <0>         0.0552 
      31 H6         0.4621   -1.1923   -0.7346 H         1 <0>         0.0780 
      32 H7        -1.8733    1.5361    0.2172 H         1 <0>         0.0637 
      33 H8        -1.7060    0.0369   -0.7223 H         1 <0>         0.0637 
      34 H9        -1.7581   -0.0280    1.0530 H         1 <0>         0.0763 
      35 H10        0.9940    2.2346    1.4555 H         1 <0>         0.4037 
      36 H11        0.2338    2.5458    3.9206 H         1 <0>         0.1033 
      37 H12        0.1270    1.0007    4.7917 H         1 <0>         0.1034 
      38 H13        2.5838    2.3092    3.8512 H         1 <0>         0.4159 
      39 H14        1.2447   -1.1351    3.9728 H         1 <0>         0.1087 
      40 H15        2.5086   -1.6583    5.1071 H         1 <0>         0.1087 
      41 H16       -1.5687   -3.2867    7.5077 H         1 <0>         0.1854 
@<TRIPOS>BOND
       1        1        2 1        
       2        1       26 1        
       3        1       27 1        
       4        1       28 1        
       5        2        3 1        
       6        2        4 1        
       7        2        5 1        
       8        3       29 1        
       9        3       30 1        
      10        3       31 1        
      11        4       32 1        
      12        4       33 1        
      13        4       34 1        
      14        5        6 am       
      15        5       35 1        
      16        6        7 2        
      17        6        8 1        
      18        8        9 1        
      19        8       36 1        
      20        8       37 1        
      21        9       10 am       
      22        9       38 1        
      23       10       11 2        
      24       10       12 1        
      25       12       13 1        
      26       12       39 1        
      27       12       40 1        
      28       13       14 1        
      29       14       15 2        
      30       14       16 1        
      31       16       21 ar       
      32       16       17 ar       
      33       17       18 ar       
      34       17       41 1        
      35       18       19 ar       
      36       18       25 1        
      37       19       20 ar       
      38       19       24 1        
      39       20       21 ar       
      40       20       23 1        
      41       21       22 1        

