#        1GCZ_R01_S0001_C0000_L00009_S0001_C0012_G0010_E0001.mol2
#        Tue Jun  6 09:57:47 2017
#        Descriptor:     27     8     7     8     9    10
#        Energy - RMSD - RMSD MassCentre:     -79.0175    999.9999    999.9999
#        Receptor:       1  Surface Point:     1  Conformer:     0
#        Ligand:         9  Surface Point:     1  Conformer:    12
#        BUDE Formal Charge: 0
#        ATOM Count: 41
#        Heavy ATOM Count: 25
@<TRIPOS>MOLECULE
ZINC61352350_1GCZ_R01_S0001_C0000_L00009_S0001_C0012_G0010_E0001
 41 41 0 0 0
SMALL
USER_CHARGES
@<TRIPOS>ATOM
       1 C1        -1.7072    0.9757   -2.9183 C.3       1 <0>        -0.1654 
       2 C2        -0.7420    0.8448   -1.7436 C.3       1 <0>         0.1681 
       3 C3         0.5009    1.6893   -2.0088 C.3       1 <0>        -0.1654 
       4 C4        -0.3386   -0.6173   -1.5760 C.3       1 <0>        -0.1575 
       5 N1        -1.3996    1.3146   -0.5156 N.am      1 <0>        -0.7174 
       6 C5        -0.7437    1.2929    0.6410 C.2       1 <0>         0.5123 
       7 O1         0.4139    0.8795    0.6834 O.2       1 <0>        -0.5302 
       8 C6        -1.4206    1.7757    1.9014 C.3       1 <0>         0.1008 
       9 N2        -2.5104    0.8548    2.2549 N.am      1 <0>        -0.7137 
      10 C7        -2.2363   -0.2999    2.8554 C.2       1 <0>         0.5216 
      11 O2        -3.1483   -1.0704    3.1512 O.2       1 <0>        -0.5149 
      12 C8        -0.8059   -0.6638    3.1737 C.3       1 <0>         0.0504 
      13 O3        -0.2691    0.2830    4.1011 O.3       1 <0>        -0.3193 
      14 C9         1.0085    0.1190    4.5054 C.2       1 <0>         0.5173 
      15 O4         1.6673   -0.8156    4.0800 O.2       1 <0>        -0.4724 
      16 C10        1.6090    1.0729    5.4645 C.ar      1 <0>        -0.1184 
      17 C11        2.9346    0.8919    5.8760 C.ar      1 <0>        -0.0438 
      18 C12        3.5222    1.7825    6.7825 C.ar      1 <0>         0.0822 
      19 C13        2.7881    2.8599    7.2833 C.ar      1 <0>         0.1048 
      20 C14        1.4621    3.0433    6.8735 C.ar      1 <0>         0.0533 
      21 C15        0.8739    2.1531    5.9671 C.ar      1 <0>         0.1585 
      22 F1        -0.4064    2.3539    5.5890 F         1 <0>        -0.0849 
      23 F2         0.7477    4.0830    7.3544 F         1 <0>        -0.0975 
      24 F3         3.3527    3.7198    8.1575 F         1 <0>        -0.0955 
      25 F4         4.8019    1.5921    7.1680 F         1 <0>        -0.1036 
      26 H1        -1.9843    2.0202   -3.0445 H         1 <0>         0.0780 
      27 H2        -1.2251    0.6156   -3.8247 H         1 <0>         0.0552 
      28 H3        -2.5990    0.3844   -2.7216 H         1 <0>         0.0657 
      29 H4         1.1937    1.5851   -1.1763 H         1 <0>         0.0657 
      30 H5         0.2137    2.7332   -2.1141 H         1 <0>         0.0552 
      31 H6         0.9803    1.3500   -2.9248 H         1 <0>         0.0780 
      32 H7        -1.2269   -1.2200   -1.3993 H         1 <0>         0.0637 
      33 H8         0.1601   -0.9610   -2.4799 H         1 <0>         0.0637 
      34 H9         0.3385   -0.7112   -0.7293 H         1 <0>         0.0763 
      35 H10       -2.3502    1.6540   -0.5504 H         1 <0>         0.4037 
      36 H11       -0.6955    1.8086    2.7119 H         1 <0>         0.1033 
      37 H12       -1.8258    2.7716    1.7359 H         1 <0>         0.1034 
      38 H13       -3.4668    1.0993    2.0415 H         1 <0>         0.4159 
      39 H14       -0.7745   -1.6594    3.6115 H         1 <0>         0.1087 
      40 H15       -0.2169   -0.6506    2.2590 H         1 <0>         0.1087 
      41 H16        3.5241    0.0670    5.5039 H         1 <0>         0.1854 
@<TRIPOS>BOND
       1        1        2 1        
       2        1       26 1        
       3        1       27 1        
       4        1       28 1        
       5        2        3 1        
       6        2        4 1        
       7        2        5 1        
       8        3       29 1        
       9        3       30 1        
      10        3       31 1        
      11        4       32 1        
      12        4       33 1        
      13        4       34 1        
      14        5        6 am       
      15        5       35 1        
      16        6        7 2        
      17        6        8 1        
      18        8        9 1        
      19        8       36 1        
      20        8       37 1        
      21        9       10 am       
      22        9       38 1        
      23       10       11 2        
      24       10       12 1        
      25       12       13 1        
      26       12       39 1        
      27       12       40 1        
      28       13       14 1        
      29       14       15 2        
      30       14       16 1        
      31       16       21 ar       
      32       16       17 ar       
      33       17       18 ar       
      34       17       41 1        
      35       18       19 ar       
      36       18       25 1        
      37       19       20 ar       
      38       19       24 1        
      39       20       21 ar       
      40       20       23 1        
      41       21       22 1        

