#        1GCZ_R01_S0001_C0000_L00009_S0001_C0012_G0010_E0001.mol2
#        Tue Jun  6 14:11:05 2017
#        Descriptor:     25     7     9     8     9    10
#        Energy - RMSD - RMSD MassCentre:     -78.5078    999.9999    999.9999
#        Receptor:       1  Surface Point:     1  Conformer:     0
#        Ligand:         9  Surface Point:     1  Conformer:    12
#        BUDE Formal Charge: 0
#        ATOM Count: 41
#        Heavy ATOM Count: 25
@<TRIPOS>MOLECULE
ZINC61352350_1GCZ_R01_S0001_C0000_L00009_S0001_C0012_G0010_E0001
 41 41 0 0 0
SMALL
USER_CHARGES
@<TRIPOS>ATOM
       1 C1        -1.4119    0.0468   -2.9196 C.3       1 <0>        -0.1654 
       2 C2        -0.5176    0.1489   -1.6874 C.3       1 <0>         0.1681 
       3 C3         0.7348    0.9498   -2.0317 C.3       1 <0>        -0.1654 
       4 C4        -0.1177   -1.2511   -1.2306 C.3       1 <0>        -0.1575 
       5 N1        -1.2493    0.8256   -0.6068 N.am      1 <0>        -0.7174 
       6 C5        -0.6631    1.0268    0.5699 C.2       1 <0>         0.5123 
       7 O1         0.4920    0.6464    0.7541 O.2       1 <0>        -0.5302 
       8 C6        -1.4160    1.7220    1.6788 C.3       1 <0>         0.1008 
       9 N2        -2.5203    0.8645    2.1325 N.am      1 <0>        -0.7137 
      10 C7        -2.2768   -0.1558    2.9501 C.2       1 <0>         0.5216 
      11 O2        -3.2009   -0.8733    3.3298 O.2       1 <0>        -0.5149 
      12 C8        -0.8660   -0.4327    3.4116 C.3       1 <0>         0.0504 
      13 O3        -0.3899    0.6766    4.1782 O.3       1 <0>        -0.3193 
      14 C9         0.8622    0.6096    4.6786 C.2       1 <0>         0.5173 
      15 O4         1.5496   -0.3767    4.4711 O.2       1 <0>        -0.4724 
      16 C10        1.4000    1.7326    5.4785 C.ar      1 <0>        -0.1184 
      17 C11        2.6997    1.6511    5.9919 C.ar      1 <0>        -0.0438 
      18 C12        3.2281    2.7020    6.7511 C.ar      1 <0>         0.0822 
      19 C13        2.4602    3.8413    7.0020 C.ar      1 <0>         0.1048 
      20 C14        1.1601    3.9256    6.4899 C.ar      1 <0>         0.0533 
      21 C15        0.6311    2.8751    5.7306 C.ar      1 <0>         0.1585 
      22 F1        -0.6255    2.9829    5.2490 F         1 <0>        -0.0849 
      23 F2         0.4133    5.0245    6.7293 F         1 <0>        -0.0975 
      24 F3         2.9678    4.8559    7.7339 F         1 <0>        -0.0955 
      25 F4         4.4835    2.6057    7.2380 F         1 <0>        -0.1036 
      26 H1        -1.6862    1.0459   -3.2516 H         1 <0>         0.0780 
      27 H2        -0.8752   -0.4658   -3.7150 H         1 <0>         0.0552 
      28 H3        -2.3109   -0.5123   -2.6690 H         1 <0>         0.0657 
      29 H4         1.3774    1.0110   -1.1558 H         1 <0>         0.0657 
      30 H5         0.4492    1.9520   -2.3437 H         1 <0>         0.0552 
      31 H6         1.2694    0.4558   -2.8404 H         1 <0>         0.0780 
      32 H7        -1.0120   -1.8251   -0.9973 H         1 <0>         0.0637 
      33 H8         0.4354   -1.7469   -2.0256 H         1 <0>         0.0637 
      34 H9         0.5083   -1.1774   -0.3436 H         1 <0>         0.0763 
      35 H10       -2.1978    1.1379   -0.7580 H         1 <0>         0.4037 
      36 H11       -0.7405    1.9144    2.5097 H         1 <0>         0.1033 
      37 H12       -1.8155    2.6642    1.3098 H         1 <0>         0.1034 
      38 H13       -3.4636    1.0507    1.8232 H         1 <0>         0.4159 
      39 H14       -0.8558   -1.3303    4.0263 H         1 <0>         0.1087 
      40 H15       -0.2238   -0.5782    2.5455 H         1 <0>         0.1087 
      41 H16        3.3143    0.7813    5.8124 H         1 <0>         0.1854 
@<TRIPOS>BOND
       1        1        2 1        
       2        1       26 1        
       3        1       27 1        
       4        1       28 1        
       5        2        3 1        
       6        2        4 1        
       7        2        5 1        
       8        3       29 1        
       9        3       30 1        
      10        3       31 1        
      11        4       32 1        
      12        4       33 1        
      13        4       34 1        
      14        5        6 am       
      15        5       35 1        
      16        6        7 2        
      17        6        8 1        
      18        8        9 1        
      19        8       36 1        
      20        8       37 1        
      21        9       10 am       
      22        9       38 1        
      23       10       11 2        
      24       10       12 1        
      25       12       13 1        
      26       12       39 1        
      27       12       40 1        
      28       13       14 1        
      29       14       15 2        
      30       14       16 1        
      31       16       21 ar       
      32       16       17 ar       
      33       17       18 ar       
      34       17       41 1        
      35       18       19 ar       
      36       18       25 1        
      37       19       20 ar       
      38       19       24 1        
      39       20       21 ar       
      40       20       23 1        
      41       21       22 1        

