#        1GCZ_R01_S0001_C0000_L00010_S0001_C0000_G0010_E0001.mol2
#        Tue Jun  6 09:57:48 2017
#        Descriptor:     32    18    22     9     8    11
#        Energy - RMSD - RMSD MassCentre:     -57.4868    999.9999    999.9999
#        Receptor:       1  Surface Point:     1  Conformer:     0
#        Ligand:        10  Surface Point:     1  Conformer:     0
#        BUDE Formal Charge: 0
#        ATOM Count: 54
#        Heavy ATOM Count: 30
@<TRIPOS>MOLECULE
ZINC61332986_1GCZ_R01_S0001_C0000_L00010_S0001_C0000_G0010_E0001
 54 57 0 0 0
SMALL
USER_CHARGES
@<TRIPOS>ATOM
       1 C1         0.7309   -2.1086    2.1059 C.3       1 <0>        -0.0651 
       2 C2         0.1526   -1.0760    1.1731 C.2       1 <0>         0.1077 
       3 C3        -0.7161   -0.0401    1.5336 C.2       1 <0>        -0.2503 
       4 C4        -1.0057    0.6683    0.4176 C.2       1 <0>         0.1023 
       5 N1        -0.3424    0.0994   -0.6144 N.pl3     1 <0>        -0.3272 
       6 N2         0.3810   -0.9903   -0.1128 N.2       1 <0>        -0.2926 
       7 C5        -0.3704    0.5270   -1.9492 C.ar      1 <0>         0.1517 
       8 C6        -0.3021    1.8813   -2.2473 C.ar      1 <0>        -0.1269 
       9 C7        -0.3299    2.2995   -3.5634 C.ar      1 <0>        -0.1004 
      10 C8        -0.4257    1.3709   -4.5835 C.ar      1 <0>        -0.1187 
      11 C9        -0.4943    0.0214   -4.2897 C.ar      1 <0>        -0.1011 
      12 C10       -0.4606   -0.4033   -2.9758 C.ar      1 <0>        -0.1080 
      13 C11       -1.9062    1.8741    0.3387 C.3       1 <0>        -0.0982 
      14 C12       -1.2378    0.2374    2.9199 C.3       1 <0>         0.1968 
      15 N3        -0.3250    1.1509    3.6115 N.am      1 <0>        -0.6132 
      16 C13       -0.5235    2.5990    3.5125 C.3       1 <0>         0.0722 
      17 C14        0.6975    0.6590    4.3390 C.2       1 <0>         0.5166 
      18 O1         0.8618   -0.5398    4.4209 O.2       1 <0>        -0.5126 
      19 C15        1.6366    1.5988    5.0504 C.3       1 <0>        -0.0487 
      20 C16        2.6831    0.8018    5.7858 C.2       1 <0>         0.0188 
      21 C17        4.0702    0.9261    5.6719 C.2       1 <0>        -0.0082 
      22 N4         4.5799    0.0356    6.4931 N.2       1 <0>        -0.2883 
      23 N5         3.6172   -0.5915    7.0710 N.pl3     1 <0>        -0.1034 
      24 N6         2.4785   -0.1487    6.6699 N.2       1 <0>        -0.2534 
      25 C18        3.7864   -1.6153    8.0140 C.ar      1 <0>         0.1428 
      26 C19        2.6773   -2.2339    8.5754 C.ar      1 <0>        -0.1016 
      27 C20        2.8471   -3.2424    9.5038 C.ar      1 <0>        -0.1024 
      28 C21        4.1199   -3.6357    9.8744 C.ar      1 <0>        -0.1128 
      29 C22        5.2263   -3.0214    9.3171 C.ar      1 <0>        -0.1028 
      30 C23        5.0630   -2.0162    8.3839 C.ar      1 <0>        -0.1050 
      31 H1         1.6730   -1.7426    2.5140 H         1 <0>         0.0801 
      32 H2         0.0306   -2.2956    2.9200 H         1 <0>         0.0841 
      33 H3         0.9074   -3.0345    1.5586 H         1 <0>         0.0646 
      34 H4        -0.2278    2.6069   -1.4510 H         1 <0>         0.1288 
      35 H5        -0.2773    3.3528   -3.7959 H         1 <0>         0.1335 
      36 H6        -0.4473    1.7003   -5.6118 H         1 <0>         0.1305 
      37 H7        -0.5696   -0.7015   -5.0886 H         1 <0>         0.1330 
      38 H8        -0.5093   -1.4577   -2.7471 H         1 <0>         0.1315 
      39 H9        -1.3057    2.7811    0.4088 H         1 <0>         0.0819 
      40 H10       -2.4425    1.8657   -0.6102 H         1 <0>         0.0765 
      41 H11       -2.6216    1.8476    1.1607 H         1 <0>         0.0881 
      42 H12       -2.2256    0.6932    2.8519 H         1 <0>         0.0827 
      43 H13       -1.3067   -0.6976    3.4760 H         1 <0>         0.0938 
      44 H14       -1.1766    2.9321    4.3191 H         1 <0>         0.0608 
      45 H15        0.4391    3.1039    3.5922 H         1 <0>         0.0719 
      46 H16       -0.9809    2.8382    2.5524 H         1 <0>         0.0716 
      47 H17        2.1206    2.2492    4.3219 H         1 <0>         0.1150 
      48 H18        1.0749    2.2044    5.7616 H         1 <0>         0.1125 
      49 H19        4.6125    1.6126    5.0385 H         1 <0>         0.2017 
      50 H20        1.6830   -1.9267    8.2868 H         1 <0>         0.1421 
      51 H21        1.9850   -3.7240    9.9408 H         1 <0>         0.1367 
      52 H22        4.2502   -4.4240   10.6011 H         1 <0>         0.1325 
      53 H23        6.2191   -3.3308    9.6085 H         1 <0>         0.1367 
      54 H24        5.9275   -1.5399    7.9455 H         1 <0>         0.1413 
@<TRIPOS>BOND
       1        1        2 1        
       2        1       31 1        
       3        1       32 1        
       4        1       33 1        
       5        2        6 2        
       6        2        3 1        
       7        3        4 2        
       8        3       14 1        
       9        4        5 1        
      10        4       13 1        
      11        5        6 1        
      12        5        7 1        
      13        7       12 ar       
      14        7        8 ar       
      15        8        9 ar       
      16        8       34 1        
      17        9       10 ar       
      18        9       35 1        
      19       10       11 ar       
      20       10       36 1        
      21       11       12 ar       
      22       11       37 1        
      23       12       38 1        
      24       13       39 1        
      25       13       40 1        
      26       13       41 1        
      27       14       15 1        
      28       14       42 1        
      29       14       43 1        
      30       15       16 1        
      31       15       17 am       
      32       16       44 1        
      33       16       45 1        
      34       16       46 1        
      35       17       18 2        
      36       17       19 1        
      37       19       20 1        
      38       19       47 1        
      39       19       48 1        
      40       20       24 2        
      41       20       21 1        
      42       21       22 2        
      43       21       49 1        
      44       22       23 1        
      45       23       24 1        
      46       23       25 1        
      47       25       30 ar       
      48       25       26 ar       
      49       26       27 ar       
      50       26       50 1        
      51       27       28 ar       
      52       27       51 1        
      53       28       29 ar       
      54       28       52 1        
      55       29       30 ar       
      56       29       53 1        
      57       30       54 1        

