#        1GCZ_R01_S0001_C0000_L00010_S0001_C0000_G0010_E0001.mol2
#        Tue Jun  6 14:11:07 2017
#        Descriptor:     29     1    23     9    10    14
#        Energy - RMSD - RMSD MassCentre:     -52.6668    999.9999    999.9999
#        Receptor:       1  Surface Point:     1  Conformer:     0
#        Ligand:        10  Surface Point:     1  Conformer:     0
#        BUDE Formal Charge: 0
#        ATOM Count: 54
#        Heavy ATOM Count: 30
@<TRIPOS>MOLECULE
ZINC61332986_1GCZ_R01_S0001_C0000_L00010_S0001_C0000_G0010_E0001
 54 57 0 0 0
SMALL
USER_CHARGES
@<TRIPOS>ATOM
       1 C1         3.2937    2.0948    5.7812 C.3       1 <0>        -0.0651 
       2 C2         2.8950    2.4606    7.1877 C.2       1 <0>         0.1077 
       3 C3         1.9003    3.3771    7.5460 C.2       1 <0>        -0.2503 
       4 C4         1.8451    3.4250    8.8971 C.2       1 <0>         0.1023 
       5 N1         2.7737    2.5675    9.3775 N.pl3     1 <0>        -0.3272 
       6 N2         3.4154    1.9713    8.2843 N.2       1 <0>        -0.2926 
       7 C5         3.0436    2.3164   10.7301 C.ar      1 <0>         0.1517 
       8 C6         1.9988    2.1780   11.6338 C.ar      1 <0>        -0.1269 
       9 C7         2.2679    1.9306   12.9658 C.ar      1 <0>        -0.1004 
      10 C8         3.5763    1.8210   13.3995 C.ar      1 <0>        -0.1187 
      11 C9         4.6191    1.9589   12.5018 C.ar      1 <0>        -0.1011 
      12 C10        4.3561    2.2000   11.1674 C.ar      1 <0>        -0.1080 
      13 C11        0.9160    4.2808    9.7191 C.3       1 <0>        -0.0982 
      14 C12        1.0426    4.1714    6.5950 C.3       1 <0>         0.1968 
      15 N3        -0.1723    3.4139    6.2841 N.am      1 <0>        -0.6132 
      16 C13       -1.3693    3.5768    7.1129 C.3       1 <0>         0.0722 
      17 C14       -0.1886    2.5671    5.2357 C.2       1 <0>         0.5166 
      18 O1         0.8023    2.4322    4.5496 O.2       1 <0>        -0.5126 
      19 C15       -1.4383    1.7879    4.9160 C.3       1 <0>        -0.0487 
      20 C16       -1.1945    0.9215    3.7072 C.2       1 <0>         0.0188 
      21 C17       -1.3792   -0.4602    3.6106 C.2       1 <0>        -0.0082 
      22 N4        -1.0444   -0.7828    2.3813 N.2       1 <0>        -0.2883 
      23 N5        -0.6838    0.2830    1.7586 N.pl3     1 <0>        -0.1034 
      24 N6        -0.7702    1.3112    2.5261 N.2       1 <0>        -0.2534 
      25 C18       -0.2590    0.3196    0.4229 C.ar      1 <0>         0.1428 
      26 C19        0.1160    1.5252   -0.1548 C.ar      1 <0>        -0.1016 
      27 C20        0.5345    1.5581   -1.4707 C.ar      1 <0>        -0.1024 
      28 C21        0.5796    0.3921   -2.2127 C.ar      1 <0>        -0.1128 
      29 C22        0.2067   -0.8100   -1.6400 C.ar      1 <0>        -0.1028 
      30 C23       -0.2071   -0.8502   -0.3229 C.ar      1 <0>        -0.1050 
      31 H1         2.6898    1.2544    5.4392 H         1 <0>         0.0801 
      32 H2         3.1324    2.9494    5.1240 H         1 <0>         0.0841 
      33 H3         4.3473    1.8163    5.7630 H         1 <0>         0.0646 
      34 H4         0.9768    2.2639   11.2957 H         1 <0>         0.1288 
      35 H5         1.4556    1.8232   13.6693 H         1 <0>         0.1335 
      36 H6         3.7842    1.6276   14.4415 H         1 <0>         0.1305 
      37 H7         5.6400    1.8733   12.8436 H         1 <0>         0.1330 
      38 H8         5.1709    2.3028   10.4660 H         1 <0>         0.1315 
      39 H9         0.0344    3.7008    9.9925 H         1 <0>         0.0819 
      40 H10        1.4290    4.6099   10.6227 H         1 <0>         0.0765 
      41 H11        0.6123    5.1505    9.1364 H         1 <0>         0.0881 
      42 H12        0.7707    5.1204    7.0570 H         1 <0>         0.0827 
      43 H13        1.5979    4.3604    5.6763 H         1 <0>         0.0938 
      44 H14       -1.9852    4.3796    6.7077 H         1 <0>         0.0608 
      45 H15       -1.9389    2.6475    7.1151 H         1 <0>         0.0719 
      46 H16       -1.0743    3.8246    8.1326 H         1 <0>         0.0716 
      47 H17       -1.7020    1.1591    5.7664 H         1 <0>         0.1150 
      48 H18       -2.2547    2.4795    4.7085 H         1 <0>         0.1125 
      49 H19       -1.7255   -1.1266    4.3868 H         1 <0>         0.2017 
      50 H20        0.0803    2.4363    0.4240 H         1 <0>         0.1421 
      51 H21        0.8263    2.4954   -1.9207 H         1 <0>         0.1367 
      52 H22        0.9064    0.4204   -3.2417 H         1 <0>         0.1325 
      53 H23        0.2431   -1.7191   -2.2220 H         1 <0>         0.1367 
      54 H24       -0.4939   -1.7901    0.1252 H         1 <0>         0.1413 
@<TRIPOS>BOND
       1        1        2 1        
       2        1       31 1        
       3        1       32 1        
       4        1       33 1        
       5        2        6 2        
       6        2        3 1        
       7        3        4 2        
       8        3       14 1        
       9        4        5 1        
      10        4       13 1        
      11        5        6 1        
      12        5        7 1        
      13        7       12 ar       
      14        7        8 ar       
      15        8        9 ar       
      16        8       34 1        
      17        9       10 ar       
      18        9       35 1        
      19       10       11 ar       
      20       10       36 1        
      21       11       12 ar       
      22       11       37 1        
      23       12       38 1        
      24       13       39 1        
      25       13       40 1        
      26       13       41 1        
      27       14       15 1        
      28       14       42 1        
      29       14       43 1        
      30       15       16 1        
      31       15       17 am       
      32       16       44 1        
      33       16       45 1        
      34       16       46 1        
      35       17       18 2        
      36       17       19 1        
      37       19       20 1        
      38       19       47 1        
      39       19       48 1        
      40       20       24 2        
      41       20       21 1        
      42       21       22 2        
      43       21       49 1        
      44       22       23 1        
      45       23       24 1        
      46       23       25 1        
      47       25       30 ar       
      48       25       26 ar       
      49       26       27 ar       
      50       26       50 1        
      51       27       28 ar       
      52       27       51 1        
      53       28       29 ar       
      54       28       52 1        
      55       29       30 ar       
      56       29       53 1        
      57       30       54 1        

