#        1GCZ_R01_S0001_C0000_L00010_S0001_C0001_G0010_E0001.mol2
#        Tue Jun  6 09:57:48 2017
#        Descriptor:     23    33    14    12     9    14
#        Energy - RMSD - RMSD MassCentre:     -64.6624    999.9999    999.9999
#        Receptor:       1  Surface Point:     1  Conformer:     0
#        Ligand:        10  Surface Point:     1  Conformer:     1
#        BUDE Formal Charge: 0
#        ATOM Count: 54
#        Heavy ATOM Count: 30
@<TRIPOS>MOLECULE
ZINC61332986_1GCZ_R01_S0001_C0000_L00010_S0001_C0001_G0010_E0001
 54 57 0 0 0
SMALL
USER_CHARGES
@<TRIPOS>ATOM
       1 C1         0.4989    0.4601    9.4141 C.3       1 <0>        -0.0651 
       2 C2         0.4966    0.5826    7.9092 C.2       1 <0>         0.1077 
       3 C3         1.3145    1.4418    7.0243 C.2       1 <0>        -0.2503 
       4 C4         0.8563    1.1977    5.7890 C.2       1 <0>         0.1023 
       5 N1        -0.1247    0.3329    5.8410 N.pl3     1 <0>        -0.3272 
       6 N2        -0.3353   -0.0598    7.1107 N.2       1 <0>        -0.2926 
       7 C5        -0.8343   -0.0143    4.7479 C.ar      1 <0>         0.1517 
       8 C6        -2.2211   -0.1858    4.8330 C.ar      1 <0>        -0.1269 
       9 C7        -2.9464   -0.5968    3.7084 C.ar      1 <0>        -0.1004 
      10 C8        -2.2928   -0.8019    2.4906 C.ar      1 <0>        -0.1187 
      11 C9        -0.9084   -0.6168    2.3975 C.ar      1 <0>        -0.1011 
      12 C10       -0.1835   -0.2088    3.5236 C.ar      1 <0>        -0.1080 
      13 C11        1.2503    1.7838    4.4544 C.3       1 <0>        -0.0982 
      14 C12        2.3789    2.4114    7.4795 C.3       1 <0>         0.1968 
      15 N3         3.5487    2.3037    6.5959 N.am      1 <0>        -0.6132 
      16 C13        3.9666    3.4560    5.7844 C.3       1 <0>         0.0722 
      17 C14        4.2295    1.1632    6.5307 C.2       1 <0>         0.5166 
      18 O1         3.8799    0.1991    7.2098 O.2       1 <0>        -0.5126 
      19 C15        5.4314    1.0508    5.6234 C.3       1 <0>        -0.0487 
      20 C16        6.6920    1.0722    6.4544 C.2       1 <0>         0.0188 
      21 C17        6.8745    1.1388    7.9215 C.2       1 <0>        -0.0082 
      22 N4         8.1817    1.0729    8.0938 N.2       1 <0>        -0.2883 
      23 N5         8.8072    0.9925    6.9032 N.pl3     1 <0>        -0.1034 
      24 N6         7.8944    0.9886    5.9161 N.2       1 <0>        -0.2534 
      25 C18       10.1410    0.9739    6.7034 C.ar      1 <0>         0.1428 
      26 C19       11.0207    0.9783    7.7925 C.ar      1 <0>        -0.1016 
      27 C20       12.4040    0.9538    7.5788 C.ar      1 <0>        -0.1024 
      28 C21       12.9110    0.9334    6.2761 C.ar      1 <0>        -0.1128 
      29 C22       12.0355    0.9264    5.1836 C.ar      1 <0>        -0.1028 
      30 C23       10.6527    0.9487    5.4005 C.ar      1 <0>        -0.1050 
      31 H1         1.2405    1.1380    9.8314 H         1 <0>         0.0801 
      32 H2         0.7434   -0.5625    9.6937 H         1 <0>         0.0841 
      33 H3        -0.4855    0.7168    9.7998 H         1 <0>         0.0646 
      34 H4        -2.7288   -0.0026    5.7685 H         1 <0>         0.1288 
      35 H5        -4.0145   -0.7421    3.7761 H         1 <0>         0.1335 
      36 H6        -2.8517   -1.1345    1.6283 H         1 <0>         0.1305 
      37 H7        -0.3996   -0.7871    1.4602 H         1 <0>         0.1330 
      38 H8         0.8816   -0.0470    3.4489 H         1 <0>         0.1315 
      39 H9         2.0409    2.5168    4.6001 H         1 <0>         0.0819 
      40 H10        0.3866    2.2663    4.0018 H         1 <0>         0.0765 
      41 H11        1.6067    0.9899    3.8014 H         1 <0>         0.0881 
      42 H12        2.6730    2.1751    8.5000 H         1 <0>         0.0827 
      43 H13        1.9873    3.4256    7.4399 H         1 <0>         0.0938 
      44 H14        3.9190    3.1925    4.7299 H         1 <0>         0.0608 
      45 H15        3.3029    4.2958    5.9793 H         1 <0>         0.0719 
      46 H16        4.9867    3.7310    6.0444 H         1 <0>         0.0716 
      47 H17        5.4400    1.8881    4.9287 H         1 <0>         0.1150 
      48 H18        5.3789    0.1175    5.0669 H         1 <0>         0.1125 
      49 H19        6.1766    1.2221    8.7415 H         1 <0>         0.2017 
      50 H20       10.6299    1.0014    8.7990 H         1 <0>         0.1421 
      51 H21       13.0856    0.9564    8.4167 H         1 <0>         0.1367 
      52 H22       13.9785    0.9144    6.1132 H         1 <0>         0.1325 
      53 H23       12.4263    0.9037    4.1770 H         1 <0>         0.1367 
      54 H24        9.9757    0.9461    4.5590 H         1 <0>         0.1413 
@<TRIPOS>BOND
       1        1        2 1        
       2        1       31 1        
       3        1       32 1        
       4        1       33 1        
       5        2        6 2        
       6        2        3 1        
       7        3        4 2        
       8        3       14 1        
       9        4        5 1        
      10        4       13 1        
      11        5        6 1        
      12        5        7 1        
      13        7       12 ar       
      14        7        8 ar       
      15        8        9 ar       
      16        8       34 1        
      17        9       10 ar       
      18        9       35 1        
      19       10       11 ar       
      20       10       36 1        
      21       11       12 ar       
      22       11       37 1        
      23       12       38 1        
      24       13       39 1        
      25       13       40 1        
      26       13       41 1        
      27       14       15 1        
      28       14       42 1        
      29       14       43 1        
      30       15       16 1        
      31       15       17 am       
      32       16       44 1        
      33       16       45 1        
      34       16       46 1        
      35       17       18 2        
      36       17       19 1        
      37       19       20 1        
      38       19       47 1        
      39       19       48 1        
      40       20       24 2        
      41       20       21 1        
      42       21       22 2        
      43       21       49 1        
      44       22       23 1        
      45       23       24 1        
      46       23       25 1        
      47       25       30 ar       
      48       25       26 ar       
      49       26       27 ar       
      50       26       50 1        
      51       27       28 ar       
      52       27       51 1        
      53       28       29 ar       
      54       28       52 1        
      55       29       30 ar       
      56       29       53 1        
      57       30       54 1        

