#        1GCZ_R01_S0001_C0000_L00010_S0001_C0001_G0010_E0001.mol2
#        Tue Jun  6 14:11:09 2017
#        Descriptor:     10    13    25     7     9    13
#        Energy - RMSD - RMSD MassCentre:     -70.2373    999.9999    999.9999
#        Receptor:       1  Surface Point:     1  Conformer:     0
#        Ligand:        10  Surface Point:     1  Conformer:     1
#        BUDE Formal Charge: 0
#        ATOM Count: 54
#        Heavy ATOM Count: 30
@<TRIPOS>MOLECULE
ZINC61332986_1GCZ_R01_S0001_C0000_L00010_S0001_C0001_G0010_E0001
 54 57 0 0 0
SMALL
USER_CHARGES
@<TRIPOS>ATOM
       1 C1        -0.8003   -2.6819    8.2572 C.3       1 <0>        -0.0651 
       2 C2        -1.2417   -1.2393    8.3197 C.2       1 <0>         0.1077 
       3 C3        -0.6489   -0.0361    7.6944 C.2       1 <0>        -0.2503 
       4 C4        -1.4001    0.9839    8.1314 C.2       1 <0>         0.1023 
       5 N1        -2.3304    0.5383    8.9371 N.pl3     1 <0>        -0.3272 
       6 N2        -2.2571   -0.8015    9.0406 N.2       1 <0>        -0.2926 
       7 C5        -3.1640    1.3665    9.5989 C.ar      1 <0>         0.1517 
       8 C6        -3.5120    1.1012   10.9287 C.ar      1 <0>        -0.1269 
       9 C7        -4.4181    1.9346   11.5952 C.ar      1 <0>        -0.1004 
      10 C8        -4.9490    3.0522   10.9461 C.ar      1 <0>        -0.1187 
      11 C9        -4.5918    3.3295    9.6213 C.ar      1 <0>        -0.1011 
      12 C10       -3.6880    2.4936    8.9547 C.ar      1 <0>        -0.1080 
      13 C11       -1.2907    2.4695    7.8845 C.3       1 <0>        -0.0982 
      14 C12        0.5771   -0.0170    6.8131 C.3       1 <0>         0.1968 
      15 N3         0.3411    0.8713    5.6659 N.am      1 <0>        -0.6132 
      16 C13        1.1653    2.0751    5.4854 C.3       1 <0>         0.0722 
      17 C14       -0.6186    0.5856    4.7907 C.2       1 <0>         0.5166 
      18 O1        -1.3082   -0.4216    4.9417 O.2       1 <0>        -0.5126 
      19 C15       -0.8626    1.4971    3.6117 C.3       1 <0>        -0.0487 
      20 C16       -0.3355    0.8457    2.3555 C.2       1 <0>         0.0188 
      21 C17        0.2941   -0.4780    2.1513 C.2       1 <0>        -0.0082 
      22 N4         0.5064   -0.5440    0.8500 N.2       1 <0>        -0.2883 
      23 N5         0.0954    0.5904    0.2505 N.pl3     1 <0>        -0.1034 
      24 N6        -0.4173    1.4244    1.1719 N.2       1 <0>        -0.2534 
      25 C18        0.2186    0.8895   -1.0589 C.ar      1 <0>         0.1428 
      26 C19        0.7638   -0.0423   -1.9503 C.ar      1 <0>        -0.1016 
      27 C20        0.8845    0.2722   -3.3091 C.ar      1 <0>        -0.1024 
      28 C21        0.4682    1.5216   -3.7784 C.ar      1 <0>        -0.1128 
      29 C22       -0.0802    2.4559   -2.8915 C.ar      1 <0>        -0.1028 
      30 C23       -0.2016    2.1377   -1.5336 C.ar      1 <0>        -0.1050 
      31 H1         0.0929   -2.7608    7.6410 H         1 <0>         0.0801 
      32 H2        -1.5952   -3.2852    7.8236 H         1 <0>         0.0841 
      33 H3        -0.5811   -3.0373    9.2618 H         1 <0>         0.0646 
      34 H4        -3.0816    0.2514   11.4375 H         1 <0>         0.1288 
      35 H5        -4.6975    1.7236   12.6170 H         1 <0>         0.1335 
      36 H6        -5.6602    3.6846   11.4566 H         1 <0>         0.1305 
      37 H7        -5.0110    4.1858    9.1138 H         1 <0>         0.1330 
      38 H8        -3.3966    2.7168    7.9390 H         1 <0>         0.1315 
      39 H9        -0.4391    2.6671    7.2371 H         1 <0>         0.0819 
      40 H10       -1.1535    2.9849    8.8327 H         1 <0>         0.0765 
      41 H11       -2.2009    2.8248    7.4061 H         1 <0>         0.0881 
      42 H12        0.7830   -1.0235    6.4553 H         1 <0>         0.0827 
      43 H13        1.4289    0.3471    7.3837 H         1 <0>         0.0938 
      44 H14        0.5286    2.9569    5.5107 H         1 <0>         0.0608 
      45 H15        1.8999    2.1342    6.2857 H         1 <0>         0.0719 
      46 H16        1.6762    2.0234    4.5261 H         1 <0>         0.0716 
      47 H17       -0.3496    2.4429    3.7731 H         1 <0>         0.1150 
      48 H18       -1.9305    1.6762    3.5074 H         1 <0>         0.1125 
      49 H19        0.5600   -1.2733    2.8318 H         1 <0>         0.2017 
      50 H20        1.0924   -1.0049   -1.5873 H         1 <0>         0.1421 
      51 H21        1.3041   -0.4444   -3.9997 H         1 <0>         0.1367 
      52 H22        0.5618    1.7623   -4.8270 H         1 <0>         0.1325 
      53 H23       -0.4084    3.4187   -3.2544 H         1 <0>         0.1367 
      54 H24       -0.6218    2.8582   -0.8475 H         1 <0>         0.1413 
@<TRIPOS>BOND
       1        1        2 1        
       2        1       31 1        
       3        1       32 1        
       4        1       33 1        
       5        2        6 2        
       6        2        3 1        
       7        3        4 2        
       8        3       14 1        
       9        4        5 1        
      10        4       13 1        
      11        5        6 1        
      12        5        7 1        
      13        7       12 ar       
      14        7        8 ar       
      15        8        9 ar       
      16        8       34 1        
      17        9       10 ar       
      18        9       35 1        
      19       10       11 ar       
      20       10       36 1        
      21       11       12 ar       
      22       11       37 1        
      23       12       38 1        
      24       13       39 1        
      25       13       40 1        
      26       13       41 1        
      27       14       15 1        
      28       14       42 1        
      29       14       43 1        
      30       15       16 1        
      31       15       17 am       
      32       16       44 1        
      33       16       45 1        
      34       16       46 1        
      35       17       18 2        
      36       17       19 1        
      37       19       20 1        
      38       19       47 1        
      39       19       48 1        
      40       20       24 2        
      41       20       21 1        
      42       21       22 2        
      43       21       49 1        
      44       22       23 1        
      45       23       24 1        
      46       23       25 1        
      47       25       30 ar       
      48       25       26 ar       
      49       26       27 ar       
      50       26       50 1        
      51       27       28 ar       
      52       27       51 1        
      53       28       29 ar       
      54       28       52 1        
      55       29       30 ar       
      56       29       53 1        
      57       30       54 1        

