#        1GCZ_R01_S0001_C0000_L00003_S0001_C0011_G0010_E0001.mol2
#        Tue Jun  6 14:03:48 2017
#        Descriptor:     25    31    13    10     9    14
#        Energy - RMSD - RMSD MassCentre:     -58.0638    999.9999    999.9999
#        Receptor:       1  Surface Point:     1  Conformer:     0
#        Ligand:         3  Surface Point:     1  Conformer:    11
#        BUDE Formal Charge: 0
#        ATOM Count: 58
#        Heavy ATOM Count: 30
@<TRIPOS>MOLECULE
ZINC61580633_1GCZ_R01_S0001_C0000_L00003_S0001_C0011_G0010_E0001
 58 59 0 0 0
SMALL
USER_CHARGES
@<TRIPOS>ATOM
       1 C1         1.1326   -5.2244    8.3193 C.3       1 <0>        -0.1532 
       2 C2         2.3349   -4.9607    7.4173 C.3       1 <0>        -0.1224 
       3 C3         1.8916   -4.9977    5.9555 C.3       1 <0>        -0.1198 
       4 C4         3.0955   -4.7338    5.0523 C.3       1 <0>         0.0610 
       5 O1         3.6001   -3.4197    5.3041 O.3       1 <0>        -0.3878 
       6 C5         4.7318   -3.1154    4.4845 C.3       1 <0>         0.0487 
       7 C6         5.2227   -1.7032    4.7994 C.3       1 <0>         0.1244 
       8 N1         4.2670   -0.7225    4.2648 N.am      1 <0>        -0.7216 
       9 C7         4.4918    0.5787    4.4228 C.2       1 <0>         0.5161 
      10 O2         5.4987    0.9622    5.0159 O.2       1 <0>        -0.5151 
      11 C8         3.5101    1.5861    3.8736 C.3       1 <0>         0.0490 
      12 O3         2.2991    1.5329    4.6323 O.3       1 <0>        -0.3194 
      13 C9         1.5909    0.3837    4.6147 C.2       1 <0>         0.5417 
      14 O4         1.9888   -0.5691    3.9649 O.2       1 <0>        -0.5337 
      15 C10        0.3310    0.2799    5.3840 C.2       1 <0>        -0.2559 
      16 C11       -0.5279   -0.9248    5.4234 C.2       1 <0>        -0.0791 
      17 C12       -1.6133   -0.7511    6.1810 C.2       1 <0>        -0.2585 
      18 S1        -1.6874    0.8607    6.9082 S.3       1 <0>         0.3028 
      19 C13       -0.1623    1.2868    6.1176 C.2       1 <0>         0.0893 
      20 N2         0.4691    2.4991    6.2107 N.am      1 <0>        -0.6099 
      21 C14       -0.0586    3.4696    6.9513 C.2       1 <0>         0.5551 
      22 O5        -1.1142    3.2787    7.5531 O.2       1 <0>        -0.4939 
      23 C15        0.6248    4.7786    7.0508 C.ar      1 <0>        -0.1466 
      24 C16        0.0326    5.7728    7.8388 C.ar      1 <0>        -0.0772 
      25 C17        0.5923    7.0538    7.9130 C.ar      1 <0>        -0.1241 
      26 C18        1.7501    7.3676    7.1917 C.ar      1 <0>        -0.0446 
      27 C19        2.3739    6.3608    6.4454 C.ar      1 <0>        -0.1261 
      28 C20        1.8272    5.0729    6.3971 C.ar      1 <0>        -0.0460 
      29 C21        2.3030    8.7722    7.2359 C.3       1 <0>        -0.0928 
      30 C22        1.6884    9.5955    6.1077 C.3       1 <0>        -0.1485 
      31 H1         0.7242   -6.2087    8.0998 H         1 <0>         0.0567 
      32 H2         0.3722   -4.4673    8.1395 H         1 <0>         0.0554 
      33 H3         1.4456   -5.1848    9.3605 H         1 <0>         0.0557 
      34 H4         2.7518   -3.9818    7.6446 H         1 <0>         0.0632 
      35 H5         3.0903   -5.7254    7.5861 H         1 <0>         0.0635 
      36 H6         1.4751   -5.9764    5.7268 H         1 <0>         0.0711 
      37 H7         1.1368   -4.2328    5.7854 H         1 <0>         0.0704 
      38 H8         3.8729   -5.4660    5.2599 H         1 <0>         0.0498 
      39 H9         2.7919   -4.8115    4.0104 H         1 <0>         0.0505 
      40 H10        4.4475   -3.1744    3.4359 H         1 <0>         0.0584 
      41 H11        5.5284   -3.8288    4.6855 H         1 <0>         0.0702 
      42 H12        6.1968   -1.5465    4.3409 H         1 <0>         0.0872 
      43 H13        5.3041   -1.5789    5.8772 H         1 <0>         0.0805 
      44 H14        3.4398   -1.0363    3.7775 H         1 <0>         0.4058 
      45 H15        3.9370    2.5845    3.9427 H         1 <0>         0.1008 
      46 H16        3.2955    1.3540    2.8326 H         1 <0>         0.0999 
      47 H17       -0.2785   -1.8358    4.8998 H         1 <0>         0.1557 
      48 H18       -2.3501   -1.5257    6.3342 H         1 <0>         0.1929 
      49 H19        1.3358    2.6559    5.7166 H         1 <0>         0.4317 
      50 H20       -0.8681    5.5530    8.3927 H         1 <0>         0.1287 
      51 H21        0.1301    7.8109    8.5291 H         1 <0>         0.1326 
      52 H22        3.2841    6.5906    5.9113 H         1 <0>         0.1342 
      53 H23        2.3836    4.3231    5.8542 H         1 <0>         0.1410 
      54 H24        3.3837    8.7397    7.1149 H         1 <0>         0.0777 
      55 H25        2.0582    9.2276    8.1932 H         1 <0>         0.0771 
      56 H26        0.6089    9.6377    6.2369 H         1 <0>         0.0623 
      57 H27        1.9219    9.1312    5.1519 H         1 <0>         0.0572 
      58 H28        2.0968   10.6037    6.1314 H         1 <0>         0.0578 
@<TRIPOS>BOND
       1        1        2 1        
       2        1       31 1        
       3        1       32 1        
       4        1       33 1        
       5        2        3 1        
       6        2       34 1        
       7        2       35 1        
       8        3        4 1        
       9        3       36 1        
      10        3       37 1        
      11        4        5 1        
      12        4       38 1        
      13        4       39 1        
      14        5        6 1        
      15        6        7 1        
      16        6       40 1        
      17        6       41 1        
      18        7        8 1        
      19        7       42 1        
      20        7       43 1        
      21        8        9 am       
      22        8       44 1        
      23        9       10 2        
      24        9       11 1        
      25       11       12 1        
      26       11       45 1        
      27       11       46 1        
      28       12       13 1        
      29       13       14 2        
      30       13       15 1        
      31       15       19 2        
      32       15       16 1        
      33       16       17 2        
      34       16       47 1        
      35       17       18 1        
      36       17       48 1        
      37       18       19 1        
      38       19       20 1        
      39       20       21 am       
      40       20       49 1        
      41       21       22 2        
      42       21       23 1        
      43       23       28 ar       
      44       23       24 ar       
      45       24       25 ar       
      46       24       50 1        
      47       25       26 ar       
      48       25       51 1        
      49       26       27 ar       
      50       26       29 1        
      51       27       28 ar       
      52       27       52 1        
      53       28       53 1        
      54       29       30 1        
      55       29       54 1        
      56       29       55 1        
      57       30       56 1        
      58       30       57 1        
      59       30       58 1        

