#        1GCZ_R01_S0001_C0000_L00010_S0001_C0002_G0010_E0001.mol2
#        Tue Jun  6 09:57:49 2017
#        Descriptor:     19    17    33     8     9    15
#        Energy - RMSD - RMSD MassCentre:     -59.6428    999.9999    999.9999
#        Receptor:       1  Surface Point:     1  Conformer:     0
#        Ligand:        10  Surface Point:     1  Conformer:     2
#        BUDE Formal Charge: 0
#        ATOM Count: 54
#        Heavy ATOM Count: 30
@<TRIPOS>MOLECULE
ZINC61332986_1GCZ_R01_S0001_C0000_L00010_S0001_C0002_G0010_E0001
 54 57 0 0 0
SMALL
USER_CHARGES
@<TRIPOS>ATOM
       1 C1        -3.3222    0.8166    8.8028 C.3       1 <0>        -0.0651 
       2 C2        -2.3636    1.2882    7.7358 C.2       1 <0>         0.1077 
       3 C3        -1.7071    2.6032    7.5620 C.2       1 <0>        -0.2503 
       4 C4        -1.0158    2.4937    6.4192 C.2       1 <0>         0.1023 
       5 N1        -1.1988    1.3061    5.9004 N.pl3     1 <0>        -0.3272 
       6 N2        -1.9917    0.5651    6.6961 N.2       1 <0>        -0.2926 
       7 C5        -0.6975    0.9639    4.6960 C.ar      1 <0>         0.1517 
       8 C6        -1.4592    0.1947    3.8084 C.ar      1 <0>        -0.1269 
       9 C7        -0.9155   -0.2019    2.5808 C.ar      1 <0>        -0.1004 
      10 C8         0.3748    0.1987    2.2248 C.ar      1 <0>        -0.1187 
      11 C9         1.1342    0.9807    3.1031 C.ar      1 <0>        -0.1011 
      12 C10        0.5905    1.3742    4.3317 C.ar      1 <0>        -0.1080 
      13 C11       -0.1664    3.4976    5.6773 C.3       1 <0>        -0.0982 
      14 C12       -1.8694    3.7942    8.4757 C.3       1 <0>         0.1968 
      15 N3        -0.5589    4.4215    8.6992 N.am      1 <0>        -0.6132 
      16 C13       -0.3167    5.8002    8.2501 C.3       1 <0>         0.0722 
      17 C14        0.4082    3.7414    9.3080 C.2       1 <0>         0.5166 
      18 O1         1.5048    4.2662    9.4950 O.2       1 <0>        -0.5126 
      19 C15        0.1610    2.3252    9.7702 C.3       1 <0>        -0.0487 
      20 C16        0.8721    1.3642    8.8478 C.2       1 <0>         0.0188 
      21 C17        1.7407    1.6210    7.6773 C.2       1 <0>        -0.0082 
      22 N4         2.1293    0.4215    7.2867 N.2       1 <0>        -0.2883 
      23 N5         1.5830   -0.5267    8.0727 N.pl3     1 <0>        -0.1034 
      24 N6         0.8259    0.0562    9.0186 N.2       1 <0>        -0.2534 
      25 C18        1.7146   -1.8605    7.9214 C.ar      1 <0>         0.1428 
      26 C19        2.5273   -2.3818    6.9074 C.ar      1 <0>        -0.1016 
      27 C20        2.6639   -3.7671    6.7585 C.ar      1 <0>        -0.1024 
      28 C21        1.9819   -4.6342    7.6174 C.ar      1 <0>        -0.1128 
      29 C22        1.1702   -4.1180    8.6345 C.ar      1 <0>        -0.1028 
      30 C23        1.0372   -2.7322    8.7823 C.ar      1 <0>        -0.1050 
      31 H1        -3.5042    1.6242    9.5087 H         1 <0>         0.0801 
      32 H2        -2.8910   -0.0336    9.3269 H         1 <0>         0.0841 
      33 H3        -4.2613    0.5201    8.3402 H         1 <0>         0.0646 
      34 H4        -2.4656   -0.0934    4.0740 H         1 <0>         0.1288 
      35 H5        -1.4973   -0.8065    1.9007 H         1 <0>         0.1335 
      36 H6         0.7983   -0.1218    1.2843 H         1 <0>         0.1305 
      37 H7         2.1364    1.2807    2.8350 H         1 <0>         0.1330 
      38 H8         1.1678    1.9932    5.0025 H         1 <0>         0.1315 
      39 H9        -0.1630    4.4403    6.2202 H         1 <0>         0.0819 
      40 H10       -0.5767    3.6533    4.6817 H         1 <0>         0.0765 
      41 H11        0.8510    3.1212    5.5962 H         1 <0>         0.0881 
      42 H12       -2.2817    3.4680    9.4281 H         1 <0>         0.0827 
      43 H13       -2.5423    4.5153    8.0164 H         1 <0>         0.0938 
      44 H14        0.4938    5.8073    7.5242 H         1 <0>         0.0608 
      45 H15       -1.2199    6.1950    7.7898 H         1 <0>         0.0719 
      46 H16       -0.0447    6.4167    9.1043 H         1 <0>         0.0716 
      47 H17       -0.9075    2.1205    9.7543 H         1 <0>         0.1150 
      48 H18        0.5391    2.2037   10.7830 H         1 <0>         0.1125 
      49 H19        2.0476    2.5295    7.1806 H         1 <0>         0.2017 
      50 H20        3.0485   -1.7125    6.2390 H         1 <0>         0.1421 
      51 H21        3.2904   -4.1727    5.9778 H         1 <0>         0.1367 
      52 H22        2.0887   -5.7025    7.5011 H         1 <0>         0.1325 
      53 H23        0.6485   -4.7871    9.3028 H         1 <0>         0.1367 
      54 H24        0.4094   -2.3322    9.5646 H         1 <0>         0.1413 
@<TRIPOS>BOND
       1        1        2 1        
       2        1       31 1        
       3        1       32 1        
       4        1       33 1        
       5        2        6 2        
       6        2        3 1        
       7        3        4 2        
       8        3       14 1        
       9        4        5 1        
      10        4       13 1        
      11        5        6 1        
      12        5        7 1        
      13        7       12 ar       
      14        7        8 ar       
      15        8        9 ar       
      16        8       34 1        
      17        9       10 ar       
      18        9       35 1        
      19       10       11 ar       
      20       10       36 1        
      21       11       12 ar       
      22       11       37 1        
      23       12       38 1        
      24       13       39 1        
      25       13       40 1        
      26       13       41 1        
      27       14       15 1        
      28       14       42 1        
      29       14       43 1        
      30       15       16 1        
      31       15       17 am       
      32       16       44 1        
      33       16       45 1        
      34       16       46 1        
      35       17       18 2        
      36       17       19 1        
      37       19       20 1        
      38       19       47 1        
      39       19       48 1        
      40       20       24 2        
      41       20       21 1        
      42       21       22 2        
      43       21       49 1        
      44       22       23 1        
      45       23       24 1        
      46       23       25 1        
      47       25       30 ar       
      48       25       26 ar       
      49       26       27 ar       
      50       26       50 1        
      51       27       28 ar       
      52       27       51 1        
      53       28       29 ar       
      54       28       52 1        
      55       29       30 ar       
      56       29       53 1        
      57       30       54 1        

