#        1GCZ_R01_S0001_C0000_L00010_S0001_C0002_G0010_E0001.mol2
#        Tue Jun  6 14:11:11 2017
#        Descriptor:     33    17    32    10     8    14
#        Energy - RMSD - RMSD MassCentre:     -57.2361    999.9999    999.9999
#        Receptor:       1  Surface Point:     1  Conformer:     0
#        Ligand:        10  Surface Point:     1  Conformer:     2
#        BUDE Formal Charge: 0
#        ATOM Count: 54
#        Heavy ATOM Count: 30
@<TRIPOS>MOLECULE
ZINC61332986_1GCZ_R01_S0001_C0000_L00010_S0001_C0002_G0010_E0001
 54 57 0 0 0
SMALL
USER_CHARGES
@<TRIPOS>ATOM
       1 C1         1.1482    3.6186    6.7083 C.3       1 <0>        -0.0651 
       2 C2         0.9217    2.1258    6.7273 C.2       1 <0>         0.1077 
       3 C3        -0.0276    1.2986    5.9494 C.2       1 <0>        -0.2503 
       4 C4         0.1476    0.0517    6.4079 C.2       1 <0>         0.1023 
       5 N1         1.0508    0.0486    7.3552 N.pl3     1 <0>        -0.3272 
       6 N2         1.5385    1.2890    7.5406 N.2       1 <0>        -0.2926 
       7 C5         1.3482   -1.0623    8.0598 C.ar      1 <0>         0.1517 
       8 C6         1.5781   -0.9818    9.4383 C.ar      1 <0>        -0.1269 
       9 C7         1.9374   -2.1286   10.1566 C.ar      1 <0>        -0.1004 
      10 C8         2.0325   -3.3611    9.5054 C.ar      1 <0>        -0.1187 
      11 C9         1.7884   -3.4485    8.1297 C.ar      1 <0>        -0.1011 
      12 C10        1.4322   -2.3005    7.4119 C.ar      1 <0>        -0.1080 
      13 C11       -0.5443   -1.2409    6.0470 C.3       1 <0>        -0.0982 
      14 C12       -1.0030    1.8146    4.9189 C.3       1 <0>         0.1968 
      15 N3        -1.0019    0.9195    3.7529 N.am      1 <0>        -0.6132 
      16 C13       -2.2229    0.1880    3.3853 C.3       1 <0>         0.0722 
      17 C14        0.1045    0.7713    3.0300 C.2       1 <0>         0.5166 
      18 O1         0.1055    0.0223    2.0544 O.2       1 <0>        -0.5126 
      19 C15        1.3596    1.5222    3.4060 C.3       1 <0>        -0.0487 
      20 C16        2.3469    0.5679    4.0341 C.2       1 <0>         0.0188 
      21 C17        2.2591   -0.8915    4.2643 C.2       1 <0>        -0.0082 
      22 N4         3.4248   -1.2115    4.7946 N.2       1 <0>        -0.2883 
      23 N5         4.1960   -0.1146    4.9267 N.pl3     1 <0>        -0.1034 
      24 N6         3.5342    0.9581    4.4587 N.2       1 <0>        -0.2534 
      25 C18        5.4213   -0.0647    5.4883 C.ar      1 <0>         0.1428 
      26 C19        6.0380   -1.2345    5.9483 C.ar      1 <0>        -0.1016 
      27 C20        7.3120   -1.1770    6.5258 C.ar      1 <0>        -0.1024 
      28 C21        7.9687    0.0508    6.6522 C.ar      1 <0>        -0.1128 
      29 C22        7.3575    1.2230    6.1914 C.ar      1 <0>        -0.1028 
      30 C23        6.0843    1.1621    5.6125 C.ar      1 <0>        -0.1050 
      31 H1         0.4731    4.0781    5.9895 H         1 <0>         0.0801 
      32 H2         2.1777    3.8249    6.4231 H         1 <0>         0.0841 
      33 H3         0.9567    4.0264    7.6986 H         1 <0>         0.0646 
      34 H4         1.4799   -0.0332    9.9452 H         1 <0>         0.1288 
      35 H5         2.1280   -2.0654   11.2178 H         1 <0>         0.1335 
      36 H6         2.3255   -4.2415   10.0582 H         1 <0>         0.1305 
      37 H7         1.8738   -4.3980    7.6223 H         1 <0>         0.1330 
      38 H8         1.2251   -2.3695    6.3542 H         1 <0>         0.1315 
      39 H9        -1.2951   -1.0487    5.2835 H         1 <0>         0.0819 
      40 H10       -1.0237   -1.6541    6.9319 H         1 <0>         0.0765 
      41 H11        0.1881   -1.9494    5.6661 H         1 <0>         0.0881 
      42 H12       -0.7080    2.8146    4.6079 H         1 <0>         0.0827 
      43 H13       -2.0019    1.8478    5.3488 H         1 <0>         0.0938 
      44 H14       -2.0315   -0.8821    3.4314 H         1 <0>         0.0608 
      45 H15       -3.0211    0.4444    4.0787 H         1 <0>         0.0719 
      46 H16       -2.5180    0.4611    2.3743 H         1 <0>         0.0716 
      47 H17        1.1120    2.3083    4.1162 H         1 <0>         0.1150 
      48 H18        1.7983    1.9637    2.5137 H         1 <0>         0.1125 
      49 H19        1.4783   -1.6144    4.0801 H         1 <0>         0.2017 
      50 H20        5.5282   -2.1822    5.8577 H         1 <0>         0.1421 
      51 H21        7.7910   -2.0774    6.8812 H         1 <0>         0.1367 
      52 H22        8.9515    0.0931    7.0978 H         1 <0>         0.1325 
      53 H23        7.8670    2.1709    6.2824 H         1 <0>         0.1367 
      54 H24        5.6100    2.0656    5.2588 H         1 <0>         0.1413 
@<TRIPOS>BOND
       1        1        2 1        
       2        1       31 1        
       3        1       32 1        
       4        1       33 1        
       5        2        6 2        
       6        2        3 1        
       7        3        4 2        
       8        3       14 1        
       9        4        5 1        
      10        4       13 1        
      11        5        6 1        
      12        5        7 1        
      13        7       12 ar       
      14        7        8 ar       
      15        8        9 ar       
      16        8       34 1        
      17        9       10 ar       
      18        9       35 1        
      19       10       11 ar       
      20       10       36 1        
      21       11       12 ar       
      22       11       37 1        
      23       12       38 1        
      24       13       39 1        
      25       13       40 1        
      26       13       41 1        
      27       14       15 1        
      28       14       42 1        
      29       14       43 1        
      30       15       16 1        
      31       15       17 am       
      32       16       44 1        
      33       16       45 1        
      34       16       46 1        
      35       17       18 2        
      36       17       19 1        
      37       19       20 1        
      38       19       47 1        
      39       19       48 1        
      40       20       24 2        
      41       20       21 1        
      42       21       22 2        
      43       21       49 1        
      44       22       23 1        
      45       23       24 1        
      46       23       25 1        
      47       25       30 ar       
      48       25       26 ar       
      49       26       27 ar       
      50       26       50 1        
      51       27       28 ar       
      52       27       51 1        
      53       28       29 ar       
      54       28       52 1        
      55       29       30 ar       
      56       29       53 1        
      57       30       54 1        

