#        1GCZ_R01_S0001_C0000_L00010_S0001_C0003_G0010_E0001.mol2
#        Tue Jun  6 09:57:50 2017
#        Descriptor:     21    32    17     9    12    15
#        Energy - RMSD - RMSD MassCentre:     -54.9082    999.9999    999.9999
#        Receptor:       1  Surface Point:     1  Conformer:     0
#        Ligand:        10  Surface Point:     1  Conformer:     3
#        BUDE Formal Charge: 0
#        ATOM Count: 54
#        Heavy ATOM Count: 30
@<TRIPOS>MOLECULE
ZINC61332986_1GCZ_R01_S0001_C0000_L00010_S0001_C0003_G0010_E0001
 54 57 0 0 0
SMALL
USER_CHARGES
@<TRIPOS>ATOM
       1 C1        -1.0158    0.6000    8.5499 C.3       1 <0>        -0.0651 
       2 C2        -0.8146    1.0913    7.1364 C.2       1 <0>         0.1077 
       3 C3        -0.6374    2.4688    6.6252 C.2       1 <0>        -0.2503 
       4 C4        -0.5680    2.3349    5.2937 C.2       1 <0>         0.1023 
       5 N1        -0.7007    1.0749    4.9655 N.pl3     1 <0>        -0.3272 
       6 N2        -0.8286    0.3151    6.0688 N.2       1 <0>        -0.2926 
       7 C5        -0.7693    0.6711    3.6805 C.ar      1 <0>         0.1517 
       8 C6        -1.6644   -0.3380    3.3057 C.ar      1 <0>        -0.1269 
       9 C7        -1.6956   -0.7901    1.9811 C.ar      1 <0>        -0.1004 
      10 C8        -0.8588   -0.2106    1.0240 C.ar      1 <0>        -0.1187 
      11 C9         0.0270    0.8092    1.3916 C.ar      1 <0>        -0.1011 
      12 C10        0.0595    1.2584    2.7171 C.ar      1 <0>        -0.1080 
      13 C11       -0.4261    3.3684    4.2020 C.3       1 <0>        -0.0982 
      14 C12       -0.6113    3.7221    7.4669 C.3       1 <0>         0.1968 
      15 N3         0.4668    4.6043    6.9974 N.am      1 <0>        -0.6132 
      16 C13        0.1467    5.9303    6.4496 C.3       1 <0>         0.0722 
      17 C14        1.7326    4.2024    7.0684 C.2       1 <0>         0.5166 
      18 O1         2.0004    3.0929    7.5268 O.2       1 <0>        -0.5126 
      19 C15        2.8413    5.1073    6.5864 C.3       1 <0>        -0.0487 
      20 C16        3.5732    5.6824    7.7753 C.2       1 <0>         0.0188 
      21 C17        5.0135    5.6697    8.1149 C.2       1 <0>        -0.0082 
      22 N4         5.0936    6.3635    9.2351 N.2       1 <0>        -0.2883 
      23 N5         3.8697    6.7764    9.6185 N.pl3     1 <0>        -0.1034 
      24 N6         2.9557    6.3615    8.7241 N.2       1 <0>        -0.2534 
      25 C18        3.5743    7.4533   10.7471 C.ar      1 <0>         0.1428 
      26 C19        4.5922    7.8485   11.6234 C.ar      1 <0>        -0.1016 
      27 C20        4.2797    8.5552   12.7908 C.ar      1 <0>        -0.1024 
      28 C21        2.9485    8.8609   13.0889 C.ar      1 <0>        -0.1128 
      29 C22        1.9271    8.4704   12.2147 C.ar      1 <0>        -0.1028 
      30 C23        2.2430    7.7656   11.0469 C.ar      1 <0>        -0.1050 
      31 H1        -1.0181    1.4482    9.2311 H         1 <0>         0.0801 
      32 H2        -0.2072   -0.0775    8.8162 H         1 <0>         0.0841 
      33 H3        -1.9667    0.0758    8.6192 H         1 <0>         0.0646 
      34 H4        -2.3284   -0.7677    4.0411 H         1 <0>         0.1288 
      35 H5        -2.3764   -1.5776    1.6935 H         1 <0>         0.1335 
      36 H6        -0.8729   -0.5719    0.0062 H         1 <0>         0.1305 
      37 H7         0.6836    1.2496    0.6557 H         1 <0>         0.1330 
      38 H8         0.7286    2.0581    2.9984 H         1 <0>         0.1315 
      39 H9        -0.3790    4.3602    4.6464 H         1 <0>         0.0819 
      40 H10       -1.2834    3.3098    3.5346 H         1 <0>         0.0765 
      41 H11        0.4857    3.1783    3.6399 H         1 <0>         0.0881 
      42 H12       -0.4351    3.4574    8.5073 H         1 <0>         0.0827 
      43 H13       -1.5651    4.2381    7.3798 H         1 <0>         0.0938 
      44 H14        0.4892    5.9884    5.4185 H         1 <0>         0.0608 
      45 H15       -0.9295    6.0862    6.4843 H         1 <0>         0.0719 
      46 H16        0.6442    6.6961    7.0412 H         1 <0>         0.0716 
      47 H17        2.4172    5.9160    5.9949 H         1 <0>         0.1150 
      48 H18        3.5354    4.5351    5.9746 H         1 <0>         0.1125 
      49 H19        5.8740    5.2299    7.6326 H         1 <0>         0.2017 
      50 H20        5.6201    7.6061   11.3973 H         1 <0>         0.1421 
      51 H21        5.0624    8.8621   13.4686 H         1 <0>         0.1367 
      52 H22        2.7093    9.4064   13.9898 H         1 <0>         0.1325 
      53 H23        0.8991    8.7122   12.4407 H         1 <0>         0.1367 
      54 H24        1.4562    7.4611   10.3727 H         1 <0>         0.1413 
@<TRIPOS>BOND
       1        1        2 1        
       2        1       31 1        
       3        1       32 1        
       4        1       33 1        
       5        2        6 2        
       6        2        3 1        
       7        3        4 2        
       8        3       14 1        
       9        4        5 1        
      10        4       13 1        
      11        5        6 1        
      12        5        7 1        
      13        7       12 ar       
      14        7        8 ar       
      15        8        9 ar       
      16        8       34 1        
      17        9       10 ar       
      18        9       35 1        
      19       10       11 ar       
      20       10       36 1        
      21       11       12 ar       
      22       11       37 1        
      23       12       38 1        
      24       13       39 1        
      25       13       40 1        
      26       13       41 1        
      27       14       15 1        
      28       14       42 1        
      29       14       43 1        
      30       15       16 1        
      31       15       17 am       
      32       16       44 1        
      33       16       45 1        
      34       16       46 1        
      35       17       18 2        
      36       17       19 1        
      37       19       20 1        
      38       19       47 1        
      39       19       48 1        
      40       20       24 2        
      41       20       21 1        
      42       21       22 2        
      43       21       49 1        
      44       22       23 1        
      45       23       24 1        
      46       23       25 1        
      47       25       30 ar       
      48       25       26 ar       
      49       26       27 ar       
      50       26       50 1        
      51       27       28 ar       
      52       27       51 1        
      53       28       29 ar       
      54       28       52 1        
      55       29       30 ar       
      56       29       53 1        
      57       30       54 1        

