#        1GCZ_R01_S0001_C0000_L00010_S0001_C0003_G0010_E0001.mol2
#        Tue Jun  6 14:11:13 2017
#        Descriptor:      3    19    31    13     9    15
#        Energy - RMSD - RMSD MassCentre:     -55.0482    999.9999    999.9999
#        Receptor:       1  Surface Point:     1  Conformer:     0
#        Ligand:        10  Surface Point:     1  Conformer:     3
#        BUDE Formal Charge: 0
#        ATOM Count: 54
#        Heavy ATOM Count: 30
@<TRIPOS>MOLECULE
ZINC61332986_1GCZ_R01_S0001_C0000_L00010_S0001_C0003_G0010_E0001
 54 57 0 0 0
SMALL
USER_CHARGES
@<TRIPOS>ATOM
       1 C1         1.8886   -1.0456    9.0396 C.3       1 <0>        -0.0651 
       2 C2         1.8944   -0.2456    7.7591 C.2       1 <0>         0.1077 
       3 C3         2.7569    0.8849    7.3487 C.2       1 <0>        -0.2503 
       4 C4         2.2882    1.2571    6.1498 C.2       1 <0>         0.1023 
       5 N1         1.2635    0.5119    5.8216 N.pl3     1 <0>        -0.3272 
       6 N2         1.0313   -0.4099    6.7741 N.2       1 <0>        -0.2926 
       7 C5         0.5382    0.7391    4.7074 C.ar      1 <0>         0.1517 
       8 C6        -0.8556    0.6125    4.7360 C.ar      1 <0>        -0.1269 
       9 C7        -1.6000    0.7986    3.5649 C.ar      1 <0>        -0.1004 
      10 C8        -0.9564    1.1454    2.3743 C.ar      1 <0>        -0.1187 
      11 C9         0.4359    1.2878    2.3450 C.ar      1 <0>        -0.1011 
      12 C10        1.1795    1.0986    3.5160 C.ar      1 <0>        -0.1080 
      13 C11        2.7138    2.3717    5.2243 C.3       1 <0>        -0.0982 
      14 C12        3.8696    1.4861    8.1736 C.3       1 <0>         0.1968 
      15 N3         5.0334    1.7420    7.3127 N.am      1 <0>        -0.6132 
      16 C13        5.5114    3.1174    7.1111 C.3       1 <0>         0.0722 
      17 C14        5.6542    0.7284    6.7161 C.2       1 <0>         0.5166 
      18 O1         5.2542   -0.4224    6.8849 O.2       1 <0>        -0.5126 
      19 C15        6.8497    0.9895    5.8313 C.3       1 <0>        -0.0487 
      20 C16        8.1087    0.5679    6.5505 C.2       1 <0>         0.0188 
      21 C17        9.1907   -0.3520    6.1342 C.2       1 <0>        -0.0082 
      22 N4        10.0616   -0.3052    7.1252 N.2       1 <0>        -0.2883 
      23 N5         9.6227    0.5199    8.0957 N.pl3     1 <0>        -0.1034 
      24 N6         8.4397    1.0471    7.7351 N.2       1 <0>        -0.2534 
      25 C18       10.2294    0.7541    9.2773 C.ar      1 <0>         0.1428 
      26 C19       11.4644    0.1627    9.5693 C.ar      1 <0>        -0.1016 
      27 C20       12.0915    0.4136   10.7955 C.ar      1 <0>        -0.1024 
      28 C21       11.4815    1.2494   11.7358 C.ar      1 <0>        -0.1128 
      29 C22       10.2479    1.8453   11.4477 C.ar      1 <0>        -0.1028 
      30 C23        9.6242    1.5941   10.2196 C.ar      1 <0>        -0.1050 
      31 H1         2.6639   -0.6706    9.7043 H         1 <0>         0.0801 
      32 H2         2.0794   -2.0926    8.8132 H         1 <0>         0.0841 
      33 H3         0.9183   -0.9492    9.5224 H         1 <0>         0.0646 
      34 H4        -1.3543    0.3691    5.6625 H         1 <0>         0.1288 
      35 H5        -2.6742    0.6883    3.5827 H         1 <0>         0.1335 
      36 H6        -1.5308    1.2726    1.4685 H         1 <0>         0.1305 
      37 H7         0.9363    1.5435    1.4227 H         1 <0>         0.1330 
      38 H8         2.2518    1.2268    3.4995 H         1 <0>         0.1315 
      39 H9         3.5411    2.9180    5.6720 H         1 <0>         0.0819 
      40 H10        1.8767    3.0478    5.0632 H         1 <0>         0.0765 
      41 H11        3.0292    1.9507    4.2720 H         1 <0>         0.0881 
      42 H12        4.1499    0.7941    8.9649 H         1 <0>         0.0827 
      43 H13        3.5312    2.4223    8.6126 H         1 <0>         0.0938 
      44 H14        5.4516    3.3702    6.0546 H         1 <0>         0.0608 
      45 H15        4.8920    3.8037    7.6846 H         1 <0>         0.0719 
      46 H16        6.5441    3.1942    7.4450 H         1 <0>         0.0716 
      47 H17        6.9026    2.0509    5.5981 H         1 <0>         0.1150 
      48 H18        6.7496    0.4197    4.9100 H         1 <0>         0.1125 
      49 H19        9.3326   -0.9624    5.2547 H         1 <0>         0.2017 
      50 H20       11.9325   -0.4889    8.8463 H         1 <0>         0.1421 
      51 H21       13.0445   -0.0404   11.0238 H         1 <0>         0.1367 
      52 H22       11.9669    1.4420   12.6811 H         1 <0>         0.1325 
      53 H23        9.7793    2.4965   12.1706 H         1 <0>         0.1367 
      54 H24        8.6713    2.0507    9.9967 H         1 <0>         0.1413 
@<TRIPOS>BOND
       1        1        2 1        
       2        1       31 1        
       3        1       32 1        
       4        1       33 1        
       5        2        6 2        
       6        2        3 1        
       7        3        4 2        
       8        3       14 1        
       9        4        5 1        
      10        4       13 1        
      11        5        6 1        
      12        5        7 1        
      13        7       12 ar       
      14        7        8 ar       
      15        8        9 ar       
      16        8       34 1        
      17        9       10 ar       
      18        9       35 1        
      19       10       11 ar       
      20       10       36 1        
      21       11       12 ar       
      22       11       37 1        
      23       12       38 1        
      24       13       39 1        
      25       13       40 1        
      26       13       41 1        
      27       14       15 1        
      28       14       42 1        
      29       14       43 1        
      30       15       16 1        
      31       15       17 am       
      32       16       44 1        
      33       16       45 1        
      34       16       46 1        
      35       17       18 2        
      36       17       19 1        
      37       19       20 1        
      38       19       47 1        
      39       19       48 1        
      40       20       24 2        
      41       20       21 1        
      42       21       22 2        
      43       21       49 1        
      44       22       23 1        
      45       23       24 1        
      46       23       25 1        
      47       25       30 ar       
      48       25       26 ar       
      49       26       27 ar       
      50       26       50 1        
      51       27       28 ar       
      52       27       51 1        
      53       28       29 ar       
      54       28       52 1        
      55       29       30 ar       
      56       29       53 1        
      57       30       54 1        

