#        1GCZ_R01_S0001_C0000_L00010_S0001_C0004_G0010_E0001.mol2
#        Tue Jun  6 09:57:51 2017
#        Descriptor:      1     2     7     9     9    15
#        Energy - RMSD - RMSD MassCentre:     -54.6014    999.9999    999.9999
#        Receptor:       1  Surface Point:     1  Conformer:     0
#        Ligand:        10  Surface Point:     1  Conformer:     4
#        BUDE Formal Charge: 0
#        ATOM Count: 54
#        Heavy ATOM Count: 30
@<TRIPOS>MOLECULE
ZINC61332986_1GCZ_R01_S0001_C0000_L00010_S0001_C0004_G0010_E0001
 54 57 0 0 0
SMALL
USER_CHARGES
@<TRIPOS>ATOM
       1 C1        -1.2038    2.9466    7.0000 C.3       1 <0>        -0.0651 
       2 C2        -0.5064    2.2670    5.8460 C.2       1 <0>         0.1077 
       3 C3         0.9125    1.8759    5.6902 C.2       1 <0>        -0.2503 
       4 C4         0.9959    1.3719    4.4513 C.2       1 <0>         0.1023 
       5 N1        -0.1724    1.4368    3.8648 N.pl3     1 <0>        -0.3272 
       6 N2        -1.0887    1.9546    4.7033 N.2       1 <0>        -0.2926 
       7 C5        -0.3477    1.0888    2.5736 C.ar      1 <0>         0.1517 
       8 C6        -1.1861    1.8464    1.7473 C.ar      1 <0>        -0.1269 
       9 C7        -1.4059    1.4519    0.4221 C.ar      1 <0>        -0.1004 
      10 C8        -0.7614    0.3220   -0.0878 C.ar      1 <0>        -0.1187 
      11 C9         0.0898   -0.4296    0.7309 C.ar      1 <0>        -0.1011 
      12 C10        0.3064   -0.0359    2.0568 C.ar      1 <0>        -0.1080 
      13 C11        2.1774    0.8342    3.6801 C.3       1 <0>        -0.0982 
      14 C12        1.9991    2.0830    6.7178 C.3       1 <0>         0.1968 
      15 N3         2.8354    0.8766    6.7953 N.am      1 <0>        -0.6132 
      16 C13        4.2594    0.9439    6.4363 C.3       1 <0>         0.0722 
      17 C14        2.3035   -0.2765    7.1904 C.2       1 <0>         0.5166 
      18 O1         3.0033   -1.2859    7.2552 O.2       1 <0>        -0.5126 
      19 C15        0.8410   -0.3473    7.5598 C.3       1 <0>        -0.0487 
      20 C16        0.7061   -0.4466    9.0605 C.2       1 <0>         0.0188 
      21 C17        0.0632   -1.4813    9.9009 C.2       1 <0>        -0.0082 
      22 N4         0.2917   -1.0874   11.1399 N.2       1 <0>        -0.2883 
      23 N5         0.9801    0.0708   11.1435 N.pl3     1 <0>        -0.1034 
      24 N6         1.2297    0.4483    9.8775 N.2       1 <0>        -0.2534 
      25 C18        1.3279    0.7877   12.2318 C.ar      1 <0>         0.1428 
      26 C19        1.0288    0.3168   13.5159 C.ar      1 <0>        -0.1016 
      27 C20        1.3970    1.0631   14.6417 C.ar      1 <0>        -0.1024 
      28 C21        2.0573    2.2855   14.4860 C.ar      1 <0>        -0.1128 
      29 C22        2.3610    2.7596   13.2043 C.ar      1 <0>        -0.1028 
      30 C23        1.9935    2.0101   12.0804 C.ar      1 <0>        -0.1050 
      31 H1        -0.4849    3.1428    7.7925 H         1 <0>         0.0801 
      32 H2        -1.9932    2.3001    7.3774 H         1 <0>         0.0841 
      33 H3        -1.6348    3.8859    6.6599 H         1 <0>         0.0646 
      34 H4        -1.6641    2.7337    2.1352 H         1 <0>         0.1288 
      35 H5        -2.0630    2.0280   -0.2127 H         1 <0>         0.1335 
      36 H6        -0.9449    0.0102   -1.1055 H         1 <0>         0.1305 
      37 H7         0.5790   -1.3106    0.3422 H         1 <0>         0.1330 
      38 H8         0.9775   -0.6037    2.6843 H         1 <0>         0.1315 
      39 H9         3.0717    0.8992    4.2960 H         1 <0>         0.0819 
      40 H10        2.3164    1.4215    2.7749 H         1 <0>         0.0765 
      41 H11        1.9937   -0.2047    3.4146 H         1 <0>         0.0881 
      42 H12        1.5487    2.2742    7.6895 H         1 <0>         0.0827 
      43 H13        2.6147    2.9324    6.4293 H         1 <0>         0.0938 
      44 H14        4.4539    0.2753    5.6002 H         1 <0>         0.0608 
      45 H15        4.5136    1.9630    6.1532 H         1 <0>         0.0719 
      46 H16        4.8626    0.6426    7.2902 H         1 <0>         0.0716 
      47 H17        0.3925   -1.2231    7.0959 H         1 <0>         0.1150 
      48 H18        0.3350    0.5493    7.2081 H         1 <0>         0.1125 
      49 H19       -0.4852   -2.3802    9.6611 H         1 <0>         0.2017 
      50 H20        0.5123   -0.6239   13.6365 H         1 <0>         0.1421 
      51 H21        1.1684    0.7025   15.6337 H         1 <0>         0.1367 
      52 H22        2.3407    2.8596   15.3557 H         1 <0>         0.1325 
      53 H23        2.8772    3.7005   13.0835 H         1 <0>         0.1367 
      54 H24        2.2246    2.3754   11.0908 H         1 <0>         0.1413 
@<TRIPOS>BOND
       1        1        2 1        
       2        1       31 1        
       3        1       32 1        
       4        1       33 1        
       5        2        6 2        
       6        2        3 1        
       7        3        4 2        
       8        3       14 1        
       9        4        5 1        
      10        4       13 1        
      11        5        6 1        
      12        5        7 1        
      13        7       12 ar       
      14        7        8 ar       
      15        8        9 ar       
      16        8       34 1        
      17        9       10 ar       
      18        9       35 1        
      19       10       11 ar       
      20       10       36 1        
      21       11       12 ar       
      22       11       37 1        
      23       12       38 1        
      24       13       39 1        
      25       13       40 1        
      26       13       41 1        
      27       14       15 1        
      28       14       42 1        
      29       14       43 1        
      30       15       16 1        
      31       15       17 am       
      32       16       44 1        
      33       16       45 1        
      34       16       46 1        
      35       17       18 2        
      36       17       19 1        
      37       19       20 1        
      38       19       47 1        
      39       19       48 1        
      40       20       24 2        
      41       20       21 1        
      42       21       22 2        
      43       21       49 1        
      44       22       23 1        
      45       23       24 1        
      46       23       25 1        
      47       25       30 ar       
      48       25       26 ar       
      49       26       27 ar       
      50       26       50 1        
      51       27       28 ar       
      52       27       51 1        
      53       28       29 ar       
      54       28       52 1        
      55       29       30 ar       
      56       29       53 1        
      57       30       54 1        

