#        1GCZ_R01_S0001_C0000_L00010_S0001_C0004_G0010_E0001.mol2
#        Tue Jun  6 14:11:15 2017
#        Descriptor:     14     8    21    12     9    15
#        Energy - RMSD - RMSD MassCentre:     -53.0347    999.9999    999.9999
#        Receptor:       1  Surface Point:     1  Conformer:     0
#        Ligand:        10  Surface Point:     1  Conformer:     4
#        BUDE Formal Charge: 0
#        ATOM Count: 54
#        Heavy ATOM Count: 30
@<TRIPOS>MOLECULE
ZINC61332986_1GCZ_R01_S0001_C0000_L00010_S0001_C0004_G0010_E0001
 54 57 0 0 0
SMALL
USER_CHARGES
@<TRIPOS>ATOM
       1 C1         5.0990    3.3403    8.4003 C.3       1 <0>        -0.0651 
       2 C2         5.8026    2.2495    7.6290 C.2       1 <0>         0.1077 
       3 C3         5.4809    0.8097    7.5112 C.2       1 <0>        -0.2503 
       4 C4         6.4666    0.2975    6.7617 C.2       1 <0>         0.1023 
       5 N1         7.3217    1.2375    6.4484 N.pl3     1 <0>        -0.3272 
       6 N2         6.9201    2.4208    6.9478 N.2       1 <0>        -0.2926 
       7 C5         8.4647    0.9751    5.7821 C.ar      1 <0>         0.1517 
       8 C6         9.6531    1.6229    6.1393 C.ar      1 <0>        -0.1269 
       9 C7        10.8257    1.3865    5.4119 C.ar      1 <0>        -0.1004 
      10 C8        10.8197    0.4773    4.3510 C.ar      1 <0>        -0.1187 
      11 C9         9.6368   -0.1840    4.0002 C.ar      1 <0>        -0.1011 
      12 C10        8.4641    0.0556    4.7265 C.ar      1 <0>        -0.1080 
      13 C11        6.7336   -1.1192    6.3132 C.3       1 <0>        -0.0982 
      14 C12        4.3136    0.1133    8.1688 C.3       1 <0>         0.1968 
      15 N3         3.6938   -0.8132    7.2106 N.am      1 <0>        -0.6132 
      16 C13        3.6874   -2.2579    7.4827 C.3       1 <0>         0.0722 
      17 C14        3.1385   -0.3443    6.0969 C.2       1 <0>         0.5166 
      18 O1         2.6199   -1.1196    5.2951 O.2       1 <0>        -0.5126 
      19 C15        3.1440    1.1395    5.8161 C.3       1 <0>        -0.0487 
      20 C16        1.7597    1.6987    6.0421 C.2       1 <0>         0.0188 
      21 C17        0.8529    2.4201    5.1215 C.2       1 <0>        -0.0082 
      22 N4        -0.2422    2.6227    5.8303 N.2       1 <0>        -0.2883 
      23 N5        -0.0942    2.1245    7.0733 N.pl3     1 <0>        -0.1034 
      24 N6         1.1217    1.5629    7.1897 N.2       1 <0>        -0.2534 
      25 C18       -0.9891    2.2120    8.0786 C.ar      1 <0>         0.1428 
      26 C19       -2.2356    2.8137    7.8674 C.ar      1 <0>        -0.1016 
      27 C20       -3.1622    2.8968    8.9136 C.ar      1 <0>        -0.1024 
      28 C21       -2.8416    2.3865   10.1751 C.ar      1 <0>        -0.1128 
      29 C22       -1.5976    1.7816   10.3908 C.ar      1 <0>        -0.1028 
      30 C23       -0.6739    1.6980    9.3421 C.ar      1 <0>        -0.1050 
      31 H1         4.2389    2.9208    8.9178 H         1 <0>         0.0801 
      32 H2         4.7667    4.1141    7.7116 H         1 <0>         0.0841 
      33 H3         5.7855    3.7706    9.1266 H         1 <0>         0.0646 
      34 H4         9.6623    2.3065    6.9754 H         1 <0>         0.1288 
      35 H5        11.7403    1.8956    5.6781 H         1 <0>         0.1335 
      36 H6        11.7215    0.3085    3.7808 H         1 <0>         0.1305 
      37 H7         9.6273   -0.8775    3.1724 H         1 <0>         0.1330 
      38 H8         7.5551   -0.4679    4.4693 H         1 <0>         0.1315 
      39 H9         5.9564   -1.7743    6.7008 H         1 <0>         0.0819 
      40 H10        7.7018   -1.4418    6.6902 H         1 <0>         0.0765 
      41 H11        6.7348   -1.1605    5.2260 H         1 <0>         0.0881 
      42 H12        3.5801    0.8525    8.4839 H         1 <0>         0.0827 
      43 H13        4.6640   -0.4431    9.0356 H         1 <0>         0.0938 
      44 H14        4.2260   -2.7774    6.6927 H         1 <0>         0.0608 
      45 H15        4.1712   -2.4485    8.4382 H         1 <0>         0.0719 
      46 H16        2.6603   -2.6151    7.5176 H         1 <0>         0.0716 
      47 H17        3.4413    1.3114    4.7838 H         1 <0>         0.1150 
      48 H18        3.8481    1.6316    6.4837 H         1 <0>         0.1125 
      49 H19        0.9612    2.7498    4.0989 H         1 <0>         0.2017 
      50 H20       -2.4810    3.2146    6.8951 H         1 <0>         0.1421 
      51 H21       -4.1249    3.3596    8.7540 H         1 <0>         0.1367 
      52 H22       -3.5578    2.4514   10.9807 H         1 <0>         0.1325 
      53 H23       -1.3520    1.3809   11.3631 H         1 <0>         0.1367 
      54 H24        0.2873    1.2341    9.5073 H         1 <0>         0.1413 
@<TRIPOS>BOND
       1        1        2 1        
       2        1       31 1        
       3        1       32 1        
       4        1       33 1        
       5        2        6 2        
       6        2        3 1        
       7        3        4 2        
       8        3       14 1        
       9        4        5 1        
      10        4       13 1        
      11        5        6 1        
      12        5        7 1        
      13        7       12 ar       
      14        7        8 ar       
      15        8        9 ar       
      16        8       34 1        
      17        9       10 ar       
      18        9       35 1        
      19       10       11 ar       
      20       10       36 1        
      21       11       12 ar       
      22       11       37 1        
      23       12       38 1        
      24       13       39 1        
      25       13       40 1        
      26       13       41 1        
      27       14       15 1        
      28       14       42 1        
      29       14       43 1        
      30       15       16 1        
      31       15       17 am       
      32       16       44 1        
      33       16       45 1        
      34       16       46 1        
      35       17       18 2        
      36       17       19 1        
      37       19       20 1        
      38       19       47 1        
      39       19       48 1        
      40       20       24 2        
      41       20       21 1        
      42       21       22 2        
      43       21       49 1        
      44       22       23 1        
      45       23       24 1        
      46       23       25 1        
      47       25       30 ar       
      48       25       26 ar       
      49       26       27 ar       
      50       26       50 1        
      51       27       28 ar       
      52       27       51 1        
      53       28       29 ar       
      54       28       52 1        
      55       29       30 ar       
      56       29       53 1        
      57       30       54 1        

