#        1GCZ_R01_S0001_C0000_L00011_S0001_C0000_G0010_E0001.mol2
#        Tue Jun  6 09:57:52 2017
#        Descriptor:      7    35    10     6     6    14
#        Energy - RMSD - RMSD MassCentre:     -62.6250    999.9999    999.9999
#        Receptor:       1  Surface Point:     1  Conformer:     0
#        Ligand:        11  Surface Point:     1  Conformer:     0
#        BUDE Formal Charge: 0
#        ATOM Count: 47
#        Heavy ATOM Count: 28
@<TRIPOS>MOLECULE
ZINC61303593_1GCZ_R01_S0001_C0000_L00011_S0001_C0000_G0010_E0001
 47 48 0 0 0
SMALL
USER_CHARGES
@<TRIPOS>ATOM
       1 C1        -4.6546   -2.4926   13.4428 C.3       1 <0>         0.0220 
       2 O1        -4.1362   -2.6186   12.1171 O.3       1 <0>        -0.3006 
       3 C2        -3.6830   -3.8458   11.7454 C.ar      1 <0>         0.1008 
       4 C3        -3.7421   -4.9022   12.6340 C.ar      1 <0>        -0.1273 
       5 C4        -3.2758   -6.1620   12.2486 C.ar      1 <0>        -0.0284 
       6 C5        -2.7522   -6.3474   10.9665 C.ar      1 <0>        -0.0603 
       7 C6        -2.6964   -5.2892   10.0853 C.ar      1 <0>        -0.1775 
       8 C7        -3.1643   -4.0391   10.4663 C.ar      1 <0>         0.1359 
       9 O2        -3.1119   -3.0006    9.5923 O.3       1 <0>        -0.2949 
      10 C8        -2.5684   -3.2686    8.2982 C.3       1 <0>         0.0554 
      11 C9        -2.5914   -1.9886    7.4602 C.3       1 <0>        -0.1108 
      12 C10       -2.0095   -2.2757    6.0746 C.3       1 <0>        -0.1085 
      13 C11       -2.0321   -1.0149    5.2493 C.2       1 <0>         0.4668 
      14 O3        -2.4689    0.0081    5.7209 O.2       1 <0>        -0.4984 
      15 O4        -1.5671   -1.0286    3.9902 O.3       1 <0>        -0.3293 
      16 C12       -1.6192    0.2023    3.2660 C.3       1 <0>         0.0498 
      17 C13       -1.0587   -0.0049    1.8825 C.2       1 <0>         0.5168 
      18 O5        -0.6545   -1.0988    1.5495 O.2       1 <0>        -0.4913 
      19 N1        -1.0067    1.0255    1.0153 N.am      1 <0>        -0.6701 
      20 C14       -0.3985    0.8586   -0.2341 C.ar      1 <0>         0.1579 
      21 C15        0.3114    1.9053   -0.8076 C.ar      1 <0>        -0.1362 
      22 C16        0.9108    1.7377   -2.0405 C.ar      1 <0>        -0.0710 
      23 C17        0.8046    0.5282   -2.7041 C.ar      1 <0>        -0.1038 
      24 C18        0.0979   -0.5162   -2.1350 C.ar      1 <0>        -0.0707 
      25 C19       -0.4991   -0.3558   -0.9000 C.ar      1 <0>        -0.1148 
      26 Br1        1.6263    0.3027   -4.3923 Br        1 <0>        -0.0469 
      27 C20       -3.3342   -7.2603   13.1656 C.1       1 <0>         0.2541 
      28 N2        -3.3805   -8.1315   13.8932 N.1       1 <0>        -0.4124 
      29 H1        -4.9808   -1.4659   13.6092 H         1 <0>         0.1051 
      30 H2        -5.5013   -3.1676   13.5676 H         1 <0>         0.0578 
      31 H3        -3.8772   -2.7480   14.1627 H         1 <0>         0.0579 
      32 H4        -4.1472   -4.7546   13.6241 H         1 <0>         0.1456 
      33 H5        -2.3908   -7.3198   10.6661 H         1 <0>         0.1399 
      34 H6        -2.2914   -5.4337    9.0945 H         1 <0>         0.1478 
      35 H7        -1.5407   -3.6173    8.4007 H         1 <0>         0.0709 
      36 H8        -3.1650   -4.0362    7.8053 H         1 <0>         0.0709 
      37 H9        -3.6191   -1.6400    7.3577 H         1 <0>         0.0878 
      38 H10       -1.9947   -1.2211    7.9530 H         1 <0>         0.0877 
      39 H11       -0.9818   -2.6243    6.1772 H         1 <0>         0.1149 
      40 H12       -2.6062   -3.0432    5.5818 H         1 <0>         0.1150 
      41 H13       -2.6539    0.5371    3.1925 H         1 <0>         0.1060 
      42 H14       -1.0295    0.9561    3.7878 H         1 <0>         0.1063 
      43 H15       -1.3906    1.8829    1.2572 H         1 <0>         0.4168 
      44 H16        0.3944    2.8496   -0.2902 H         1 <0>         0.1372 
      45 H17        1.4628    2.5515   -2.4871 H         1 <0>         0.1390 
      46 H18        0.0162   -1.4592   -2.6553 H         1 <0>         0.1383 
      47 H19       -1.0472   -1.1728   -0.4544 H         1 <0>         0.1486 
@<TRIPOS>BOND
       1        1        2 1        
       2        1       29 1        
       3        1       30 1        
       4        1       31 1        
       5        2        3 1        
       6        3        8 ar       
       7        3        4 ar       
       8        4        5 ar       
       9        4       32 1        
      10        5        6 ar       
      11        5       27 1        
      12        6        7 ar       
      13        6       33 1        
      14        7        8 ar       
      15        7       34 1        
      16        8        9 1        
      17        9       10 1        
      18       10       11 1        
      19       10       35 1        
      20       10       36 1        
      21       11       12 1        
      22       11       37 1        
      23       11       38 1        
      24       12       13 1        
      25       12       39 1        
      26       12       40 1        
      27       13       14 2        
      28       13       15 1        
      29       15       16 1        
      30       16       17 1        
      31       16       41 1        
      32       16       42 1        
      33       17       18 2        
      34       17       19 am       
      35       19       20 1        
      36       19       43 1        
      37       20       25 ar       
      38       20       21 ar       
      39       21       22 ar       
      40       21       44 1        
      41       22       23 ar       
      42       22       45 1        
      43       23       24 ar       
      44       23       26 1        
      45       24       25 ar       
      46       24       46 1        
      47       25       47 1        
      48       27       28 3        

