#        1GCZ_R01_S0001_C0000_L00011_S0001_C0000_G0010_E0001.mol2
#        Tue Jun  6 14:11:17 2017
#        Descriptor:      8    35     9     6     7    14
#        Energy - RMSD - RMSD MassCentre:     -56.3403    999.9999    999.9999
#        Receptor:       1  Surface Point:     1  Conformer:     0
#        Ligand:        11  Surface Point:     1  Conformer:     0
#        BUDE Formal Charge: 0
#        ATOM Count: 47
#        Heavy ATOM Count: 28
@<TRIPOS>MOLECULE
ZINC61303593_1GCZ_R01_S0001_C0000_L00011_S0001_C0000_G0010_E0001
 47 48 0 0 0
SMALL
USER_CHARGES
@<TRIPOS>ATOM
       1 C1        -3.3867   -0.9621   13.7949 C.3       1 <0>         0.0220 
       2 O1        -3.1387   -1.1874   12.4058 O.3       1 <0>        -0.3006 
       3 C2        -3.0114   -2.4801   12.0030 C.ar      1 <0>         0.1008 
       4 C3        -3.1284   -3.5048   12.9224 C.ar      1 <0>        -0.1273 
       5 C4        -2.9974   -4.8320   12.5051 C.ar      1 <0>        -0.0284 
       6 C5        -2.7488   -5.1166   11.1598 C.ar      1 <0>        -0.0603 
       7 C6        -2.6332   -4.0895   10.2482 C.ar      1 <0>        -0.1775 
       8 C7        -2.7686   -2.7715   10.6619 C.ar      1 <0>         0.1359 
       9 O2        -2.6590   -1.7631    9.7584 O.3       1 <0>        -0.2949 
      10 C8        -2.4099   -2.1325    8.4007 C.3       1 <0>         0.0554 
      11 C9        -2.3184   -0.8725    7.5377 C.3       1 <0>        -0.1108 
      12 C10       -2.0518   -1.2682    6.0840 C.3       1 <0>        -0.1085 
      13 C11       -1.9617   -0.0270    5.2340 C.2       1 <0>         0.4668 
      14 O3        -2.0970    1.0622    5.7390 O.2       1 <0>        -0.4984 
      15 O4        -1.7312   -0.1316    3.9157 O.3       1 <0>        -0.3293 
      16 C12       -1.6582    1.0860    3.1713 C.3       1 <0>         0.0498 
      17 C13       -1.3957    0.7728    1.7207 C.2       1 <0>         0.5168 
      18 O5        -1.2823   -0.3795    1.3600 O.2       1 <0>        -0.4913 
      19 N1        -1.2870    1.7734    0.8244 N.am      1 <0>        -0.6701 
      20 C14       -0.9475    1.4896   -0.5035 C.ar      1 <0>         0.1579 
      21 C15       -0.1507    2.3716   -1.2215 C.ar      1 <0>        -0.1362 
      22 C16        0.1830    2.0888   -2.5315 C.ar      1 <0>        -0.0710 
      23 C17       -0.2757    0.9280   -3.1284 C.ar      1 <0>        -0.1038 
      24 C18       -1.0697    0.0475   -2.4154 C.ar      1 <0>        -0.0707 
      25 C19       -1.4022    0.3227   -1.1035 C.ar      1 <0>        -0.1148 
      26 Br1        0.1830    0.5445   -4.9225 Br        1 <0>        -0.0469 
      27 C20       -3.1174   -5.8979   13.4538 C.1       1 <0>         0.2541 
      28 N2        -3.2124   -6.7434   14.2065 N.1       1 <0>        -0.4124 
      29 H1        -3.4669    0.1091   13.9806 H         1 <0>         0.1051 
      30 H2        -4.3176   -1.4512   14.0818 H         1 <0>         0.0578 
      31 H3        -2.5649   -1.3721   14.3819 H         1 <0>         0.0579 
      32 H4        -3.3203   -3.2805   13.9613 H         1 <0>         0.1456 
      33 H5        -2.6468   -6.1414   10.8346 H         1 <0>         0.1399 
      34 H6        -2.4411   -4.3108    9.2086 H         1 <0>         0.1478 
      35 H7        -1.4710   -2.6831    8.3403 H         1 <0>         0.0709 
      36 H8        -3.2237   -2.7616    8.0401 H         1 <0>         0.0709 
      37 H9        -3.2573   -0.3219    7.5980 H         1 <0>         0.0878 
      38 H10       -1.5046   -0.2435    7.8982 H         1 <0>         0.0877 
      39 H11       -1.1129   -1.8187    6.0237 H         1 <0>         0.1149 
      40 H12       -2.8656   -1.8971    5.7235 H         1 <0>         0.1150 
      41 H13       -2.6016    1.6243    3.2619 H         1 <0>         0.1060 
      42 H14       -0.8489    1.7028    3.5621 H         1 <0>         0.1063 
      43 H15       -1.4439    2.6903    1.0995 H         1 <0>         0.4168 
      44 H16        0.2073    3.2780   -0.7561 H         1 <0>         0.1372 
      45 H17        0.8024    2.7746   -3.0905 H         1 <0>         0.1390 
      46 H18       -1.4268   -0.8578   -2.8839 H         1 <0>         0.1383 
      47 H19       -2.0186   -0.3670   -0.5460 H         1 <0>         0.1486 
@<TRIPOS>BOND
       1        1        2 1        
       2        1       29 1        
       3        1       30 1        
       4        1       31 1        
       5        2        3 1        
       6        3        8 ar       
       7        3        4 ar       
       8        4        5 ar       
       9        4       32 1        
      10        5        6 ar       
      11        5       27 1        
      12        6        7 ar       
      13        6       33 1        
      14        7        8 ar       
      15        7       34 1        
      16        8        9 1        
      17        9       10 1        
      18       10       11 1        
      19       10       35 1        
      20       10       36 1        
      21       11       12 1        
      22       11       37 1        
      23       11       38 1        
      24       12       13 1        
      25       12       39 1        
      26       12       40 1        
      27       13       14 2        
      28       13       15 1        
      29       15       16 1        
      30       16       17 1        
      31       16       41 1        
      32       16       42 1        
      33       17       18 2        
      34       17       19 am       
      35       19       20 1        
      36       19       43 1        
      37       20       25 ar       
      38       20       21 ar       
      39       21       22 ar       
      40       21       44 1        
      41       22       23 ar       
      42       22       45 1        
      43       23       24 ar       
      44       23       26 1        
      45       24       25 ar       
      46       24       46 1        
      47       25       47 1        
      48       27       28 3        

