#        1GCZ_R01_S0001_C0000_L00011_S0001_C0001_G0010_E0001.mol2
#        Tue Jun  6 09:57:53 2017
#        Descriptor:     27    16     8     8     6    13
#        Energy - RMSD - RMSD MassCentre:     -75.0512    999.9999    999.9999
#        Receptor:       1  Surface Point:     1  Conformer:     0
#        Ligand:        11  Surface Point:     1  Conformer:     1
#        BUDE Formal Charge: 0
#        ATOM Count: 47
#        Heavy ATOM Count: 28
@<TRIPOS>MOLECULE
ZINC61303593_1GCZ_R01_S0001_C0000_L00011_S0001_C0001_G0010_E0001
 47 48 0 0 0
SMALL
USER_CHARGES
@<TRIPOS>ATOM
       1 C1        -0.4895   -2.9329    0.6864 C.3       1 <0>         0.0220 
       2 O1        -0.0866   -1.7516    1.3838 O.3       1 <0>        -0.3006 
       3 C2        -0.0861   -0.5673    0.6949 C.ar      1 <0>         0.1008 
       4 C3         0.3491   -0.4422   -0.6296 C.ar      1 <0>        -0.1273 
       5 C4         0.3243    0.7981   -1.2785 C.ar      1 <0>        -0.0284 
       6 C5        -0.1394    1.9242   -0.5987 C.ar      1 <0>        -0.0603 
       7 C6        -0.5755    1.8031    0.7261 C.ar      1 <0>        -0.1775 
       8 C7        -0.5514    0.5636    1.3764 C.ar      1 <0>         0.1359 
       9 O2        -0.9638    0.3791    2.6698 O.3       1 <0>        -0.2949 
      10 C8        -0.5746    1.3518    3.6431 C.3       1 <0>         0.0554 
      11 C9        -1.1356    0.9573    5.0086 C.3       1 <0>        -0.1108 
      12 C10       -0.5721   -0.4033    5.4160 C.3       1 <0>        -0.1085 
      13 C11       -1.1266   -0.7932    6.7654 C.2       1 <0>         0.4668 
      14 O3        -1.8848   -0.0650    7.3337 O.2       1 <0>        -0.4984 
      15 O4        -0.7654   -1.9650    7.3301 O.3       1 <0>        -0.3293 
      16 C12       -1.3163   -2.2912    8.6088 C.3       1 <0>         0.0498 
      17 C13       -0.7872   -3.6328    9.0562 C.2       1 <0>         0.5168 
      18 O5        -1.5667   -4.5118    9.4206 O.2       1 <0>        -0.4913 
      19 N1         0.5225   -3.8642    9.0564 N.am      1 <0>        -0.6701 
      20 C14        1.0199   -5.1209    9.4754 C.ar      1 <0>         0.1579 
      21 C15        0.1325   -6.1218    9.8884 C.ar      1 <0>        -0.1362 
      22 C16        0.6255   -7.3633   10.3078 C.ar      1 <0>        -0.0710 
      23 C17        2.0027   -7.6061   10.3071 C.ar      1 <0>        -0.1038 
      24 C18        2.8898   -6.6058    9.8920 C.ar      1 <0>        -0.0707 
      25 C19        2.3987   -5.3628    9.4750 C.ar      1 <0>        -0.1148 
      26 Br1        2.6708   -9.2912   10.8763 Br        1 <0>        -0.0469 
      27 C20        0.7776    0.9160   -2.6508 C.1       1 <0>         0.2541 
      28 N2         1.1401    1.0109   -3.7486 N.1       1 <0>        -0.4124 
      29 H1         0.1821   -3.1052   -0.1522 H         1 <0>         0.1051 
      30 H2        -0.4511   -3.7839    1.3633 H         1 <0>         0.0578 
      31 H3        -1.5057   -2.8073    0.3183 H         1 <0>         0.0579 
      32 H4         0.7186   -1.2758   -1.2083 H         1 <0>         0.1456 
      33 H5        -0.1597    2.8821   -1.0968 H         1 <0>         0.1399 
      34 H6        -0.9230    2.7099    1.1988 H         1 <0>         0.1478 
      35 H7         0.5111    1.3973    3.6972 H         1 <0>         0.0709 
      36 H8        -0.9654    2.3266    3.3591 H         1 <0>         0.0709 
      37 H9        -0.8507    1.7031    5.7476 H         1 <0>         0.0878 
      38 H10       -2.2205    0.8977    4.9522 H         1 <0>         0.0877 
      39 H11       -0.8571   -1.1502    4.6780 H         1 <0>         0.1149 
      40 H12        0.5127   -0.3449    5.4735 H         1 <0>         0.1150 
      41 H13       -2.4008   -2.3355    8.5366 H         1 <0>         0.1060 
      42 H14       -1.0311   -1.5301    9.3320 H         1 <0>         0.1063 
      43 H15        1.1626   -3.1425    8.7573 H         1 <0>         0.4168 
      44 H16       -0.9309   -5.9330    9.8800 H         1 <0>         0.1372 
      45 H17       -0.0570   -8.1372   10.6263 H         1 <0>         0.1390 
      46 H18        3.9531   -6.7953    9.8937 H         1 <0>         0.1383 
      47 H19        3.0790   -4.5893    9.1507 H         1 <0>         0.1486 
@<TRIPOS>BOND
       1        1        2 1        
       2        1       29 1        
       3        1       30 1        
       4        1       31 1        
       5        2        3 1        
       6        3        8 ar       
       7        3        4 ar       
       8        4        5 ar       
       9        4       32 1        
      10        5        6 ar       
      11        5       27 1        
      12        6        7 ar       
      13        6       33 1        
      14        7        8 ar       
      15        7       34 1        
      16        8        9 1        
      17        9       10 1        
      18       10       11 1        
      19       10       35 1        
      20       10       36 1        
      21       11       12 1        
      22       11       37 1        
      23       11       38 1        
      24       12       13 1        
      25       12       39 1        
      26       12       40 1        
      27       13       14 2        
      28       13       15 1        
      29       15       16 1        
      30       16       17 1        
      31       16       41 1        
      32       16       42 1        
      33       17       18 2        
      34       17       19 am       
      35       19       20 1        
      36       19       43 1        
      37       20       25 ar       
      38       20       21 ar       
      39       21       22 ar       
      40       21       44 1        
      41       22       23 ar       
      42       22       45 1        
      43       23       24 ar       
      44       23       26 1        
      45       24       25 ar       
      46       24       46 1        
      47       25       47 1        
      48       27       28 3        

