#        1GCZ_R01_S0001_C0000_L00003_S0001_C0012_G0010_E0001.mol2
#        Tue Jun  6 09:54:46 2017
#        Descriptor:      2    33    29    11     6    13
#        Energy - RMSD - RMSD MassCentre:     -57.0902    999.9999    999.9999
#        Receptor:       1  Surface Point:     1  Conformer:     0
#        Ligand:         3  Surface Point:     1  Conformer:    12
#        BUDE Formal Charge: 0
#        ATOM Count: 58
#        Heavy ATOM Count: 30
@<TRIPOS>MOLECULE
ZINC61580633_1GCZ_R01_S0001_C0000_L00003_S0001_C0012_G0010_E0001
 58 59 0 0 0
SMALL
USER_CHARGES
@<TRIPOS>ATOM
       1 C1         8.9607   -3.1388    1.6280 C.3       1 <0>        -0.1532 
       2 C2         8.2813   -3.8693    2.7826 C.3       1 <0>        -0.1224 
       3 C3         6.7953   -4.0413    2.4714 C.3       1 <0>        -0.1198 
       4 C4         6.1148   -4.7727    3.6277 C.3       1 <0>         0.0610 
       5 O1         6.2054   -3.9776    4.8128 O.3       1 <0>        -0.3878 
       6 C5         5.5835   -4.6138    5.9323 C.3       1 <0>         0.0487 
       7 C6         5.7134   -3.7177    7.1631 C.3       1 <0>         0.1244 
       8 N1         4.8226   -2.5573    7.0195 N.am      1 <0>        -0.7216 
       9 C7         4.7701   -1.6371    7.9783 C.2       1 <0>         0.5161 
      10 O2         5.4665   -1.7564    8.9850 O.2       1 <0>        -0.5151 
      11 C8         3.8549   -0.4450    7.8308 C.3       1 <0>         0.0490 
      12 O3         2.4947   -0.8734    7.9365 O.3       1 <0>        -0.3194 
      13 C9         2.0913   -1.4184    9.1039 C.2       1 <0>         0.5417 
      14 O4         2.8787   -1.5331   10.0287 O.2       1 <0>        -0.5337 
      15 C10        0.6932   -1.8769    9.2617 C.2       1 <0>        -0.2559 
      16 C11        0.1508   -2.4991   10.4902 C.2       1 <0>        -0.0791 
      17 C12       -1.1356   -2.8338   10.3656 C.2       1 <0>        -0.2585 
      18 S1        -1.7961   -2.4255    8.7752 S.3       1 <0>         0.3028 
      19 C13       -0.2217   -1.7805    8.2875 C.2       1 <0>         0.0893 
      20 N2         0.0721   -1.2453    7.0610 N.am      1 <0>        -0.6099 
      21 C14       -0.8691   -1.1705    6.1244 C.2       1 <0>         0.5551 
      22 O5        -2.0042   -1.5819    6.3594 O.2       1 <0>        -0.4939 
      23 C15       -0.5501   -0.5920    4.8000 C.ar      1 <0>        -0.1466 
      24 C16       -1.5700   -0.5355    3.8426 C.ar      1 <0>        -0.0772 
      25 C17       -1.3109   -0.0674    2.5490 C.ar      1 <0>        -0.1241 
      26 C18       -0.0233    0.3436    2.1854 C.ar      1 <0>        -0.0446 
      27 C19        0.9861    0.3383    3.1555 C.ar      1 <0>        -0.1261 
      28 C20        0.7159   -0.1030    4.4564 C.ar      1 <0>        -0.0460 
      29 C21        0.2498    0.7865    0.7677 C.3       1 <0>        -0.0928 
      30 C22        0.6784   -0.4171   -0.0666 C.3       1 <0>        -0.1485 
      31 H1         8.5102   -2.1559    1.5062 H         1 <0>         0.0567 
      32 H2         8.8340   -3.7123    0.7122 H         1 <0>         0.0554 
      33 H3        10.0213   -3.0283    1.8436 H         1 <0>         0.0557 
      34 H4         8.7394   -4.8475    2.9135 H         1 <0>         0.0632 
      35 H5         8.3950   -3.2898    3.6964 H         1 <0>         0.0635 
      36 H6         6.3358   -3.0637    2.3411 H         1 <0>         0.0711 
      37 H7         6.6802   -4.6215    1.5582 H         1 <0>         0.0704 
      38 H8         5.0681   -4.9423    3.3846 H         1 <0>         0.0498 
      39 H9         6.6086   -5.7278    3.7940 H         1 <0>         0.0505 
      40 H10        6.0708   -5.5671    6.1256 H         1 <0>         0.0584 
      41 H11        4.5305   -4.7814    5.7161 H         1 <0>         0.0702 
      42 H12        6.7419   -3.3752    7.2562 H         1 <0>         0.0872 
      43 H13        5.4356   -4.2795    8.0524 H         1 <0>         0.0805 
      44 H14        4.2504   -2.4583    6.1932 H         1 <0>         0.4058 
      45 H15        4.0692    0.2768    8.6161 H         1 <0>         0.1008 
      46 H16        4.0144    0.0173    6.8590 H         1 <0>         0.0999 
      47 H17        0.7444   -2.6452   11.3805 H         1 <0>         0.1557 
      48 H18       -1.7012   -3.2913   11.1637 H         1 <0>         0.1929 
      49 H19        1.0041   -0.9075    6.8681 H         1 <0>         0.4317 
      50 H20       -2.5671   -0.8600    4.1010 H         1 <0>         0.1287 
      51 H21       -2.1071   -0.0225    1.8207 H         1 <0>         0.1326 
      52 H22        1.9739    0.6829    2.8874 H         1 <0>         0.1342 
      53 H23        1.5172   -0.0288    5.1766 H         1 <0>         0.1410 
      54 H24        1.0439    1.5301    0.7674 H         1 <0>         0.0777 
      55 H25       -0.6536    1.2196    0.3434 H         1 <0>         0.0771 
      56 H26       -0.1215   -1.1546   -0.0758 H         1 <0>         0.0623 
      57 H27        1.5738   -0.8578    0.3669 H         1 <0>         0.0572 
      58 H28        0.8879   -0.0957   -1.0846 H         1 <0>         0.0578 
@<TRIPOS>BOND
       1        1        2 1        
       2        1       31 1        
       3        1       32 1        
       4        1       33 1        
       5        2        3 1        
       6        2       34 1        
       7        2       35 1        
       8        3        4 1        
       9        3       36 1        
      10        3       37 1        
      11        4        5 1        
      12        4       38 1        
      13        4       39 1        
      14        5        6 1        
      15        6        7 1        
      16        6       40 1        
      17        6       41 1        
      18        7        8 1        
      19        7       42 1        
      20        7       43 1        
      21        8        9 am       
      22        8       44 1        
      23        9       10 2        
      24        9       11 1        
      25       11       12 1        
      26       11       45 1        
      27       11       46 1        
      28       12       13 1        
      29       13       14 2        
      30       13       15 1        
      31       15       19 2        
      32       15       16 1        
      33       16       17 2        
      34       16       47 1        
      35       17       18 1        
      36       17       48 1        
      37       18       19 1        
      38       19       20 1        
      39       20       21 am       
      40       20       49 1        
      41       21       22 2        
      42       21       23 1        
      43       23       28 ar       
      44       23       24 ar       
      45       24       25 ar       
      46       24       50 1        
      47       25       26 ar       
      48       25       51 1        
      49       26       27 ar       
      50       26       29 1        
      51       27       28 ar       
      52       27       52 1        
      53       28       53 1        
      54       29       30 1        
      55       29       54 1        
      56       29       55 1        
      57       30       56 1        
      58       30       57 1        
      59       30       58 1        

