#        1GCZ_R01_S0001_C0000_L00011_S0001_C0002_G0010_E0001.mol2
#        Tue Jun  6 09:57:54 2017
#        Descriptor:      1    30    25    11     8    13
#        Energy - RMSD - RMSD MassCentre:     -64.1523    999.9999    999.9999
#        Receptor:       1  Surface Point:     1  Conformer:     0
#        Ligand:        11  Surface Point:     1  Conformer:     2
#        BUDE Formal Charge: 0
#        ATOM Count: 47
#        Heavy ATOM Count: 28
@<TRIPOS>MOLECULE
ZINC61303593_1GCZ_R01_S0001_C0000_L00011_S0001_C0002_G0010_E0001
 47 48 0 0 0
SMALL
USER_CHARGES
@<TRIPOS>ATOM
       1 C1         6.7878   -2.0896    6.0001 C.3       1 <0>         0.0220 
       2 O1         6.0909   -0.9998    6.6094 O.3       1 <0>        -0.3006 
       3 C2         6.4424   -0.6452    7.8852 C.ar      1 <0>         0.1008 
       4 C3         7.7653   -0.6053    8.3411 C.ar      1 <0>        -0.1273 
       5 C4         8.0588   -0.2340    9.6587 C.ar      1 <0>        -0.0284 
       6 C5         7.0220    0.1004   10.5294 C.ar      1 <0>        -0.0603 
       7 C6         5.6976    0.0617   10.0772 C.ar      1 <0>        -0.1775 
       8 C7         5.4023   -0.3093    8.7600 C.ar      1 <0>         0.1359 
       9 O2         4.1293   -0.3669    8.2570 O.3       1 <0>        -0.2949 
      10 C8         3.2288    0.6936    8.5878 C.3       1 <0>         0.0554 
      11 C9         1.8745    0.4345    7.9293 C.3       1 <0>        -0.1108 
      12 C10        2.0477    0.3877    6.4119 C.3       1 <0>        -0.1085 
      13 C11        0.7093    0.1317    5.7610 C.2       1 <0>         0.4668 
      14 O3        -0.2688    0.0019    6.4353 O.2       1 <0>        -0.4984 
      15 O4         0.6177    0.0493    4.4167 O.3       1 <0>        -0.3293 
      16 C12       -0.6706   -0.1944    3.8460 C.3       1 <0>         0.0498 
      17 C13       -0.5514   -0.2496    2.3417 C.2       1 <0>         0.5168 
      18 O5        -1.0133   -1.2065    1.7220 O.2       1 <0>        -0.4913 
      19 N1         0.0535    0.7370    1.6863 N.am      1 <0>        -0.6701 
      20 C14        0.1661    0.6868    0.2767 C.ar      1 <0>         0.1579 
      21 C15       -0.3613   -0.4014   -0.4286 C.ar      1 <0>        -0.1362 
      22 C16       -0.2450   -0.4531   -1.8229 C.ar      1 <0>        -0.0710 
      23 C17        0.3906    0.5851   -2.5113 C.ar      1 <0>        -0.1038 
      24 C18        0.9159    1.6743   -1.8060 C.ar      1 <0>        -0.0707 
      25 C19        0.8031    1.7262   -0.4114 C.ar      1 <0>        -0.1148 
      26 Br1        0.5477    0.5141   -4.4034 Br        1 <0>        -0.0469 
      27 C20        9.4329   -0.1962   10.1202 C.1       1 <0>         0.2541 
      28 N2        10.5320   -0.1657   10.4899 N.1       1 <0>        -0.4124 
      29 H1         6.6319   -2.9924    6.5870 H         1 <0>         0.1051 
      30 H2         6.4099   -2.2424    4.9914 H         1 <0>         0.0578 
      31 H3         7.8509   -1.8619    5.9590 H         1 <0>         0.0579 
      32 H4         8.6104   -0.8528    7.7159 H         1 <0>         0.1456 
      33 H5         7.2455    0.3871   11.5463 H         1 <0>         0.1399 
      34 H6         4.9394    0.3312   10.7976 H         1 <0>         0.1478 
      35 H7         3.1033    0.7402    9.6675 H         1 <0>         0.0709 
      36 H8         3.6317    1.6379    8.2277 H         1 <0>         0.0709 
      37 H9         1.4770   -0.5163    8.2778 H         1 <0>         0.0878 
      38 H10        1.1847    1.2343    8.1903 H         1 <0>         0.0877 
      39 H11        2.4444    1.3383    6.0619 H         1 <0>         0.1149 
      40 H12        2.7367   -0.4122    6.1494 H         1 <0>         0.1150 
      41 H13       -1.3497    0.6081    4.1260 H         1 <0>         0.1060 
      42 H14       -1.0574   -1.1425    4.2135 H         1 <0>         0.1063 
      43 H15        0.4328    1.5228    2.1952 H         1 <0>         0.4168 
      44 H16       -0.8583   -1.1974    0.1061 H         1 <0>         0.1372 
      45 H17       -0.6515   -1.2912   -2.3693 H         1 <0>         0.1390 
      46 H18        1.4076    2.4741   -2.3399 H         1 <0>         0.1383 
      47 H19        1.2038    2.5661    0.1365 H         1 <0>         0.1486 
@<TRIPOS>BOND
       1        1        2 1        
       2        1       29 1        
       3        1       30 1        
       4        1       31 1        
       5        2        3 1        
       6        3        8 ar       
       7        3        4 ar       
       8        4        5 ar       
       9        4       32 1        
      10        5        6 ar       
      11        5       27 1        
      12        6        7 ar       
      13        6       33 1        
      14        7        8 ar       
      15        7       34 1        
      16        8        9 1        
      17        9       10 1        
      18       10       11 1        
      19       10       35 1        
      20       10       36 1        
      21       11       12 1        
      22       11       37 1        
      23       11       38 1        
      24       12       13 1        
      25       12       39 1        
      26       12       40 1        
      27       13       14 2        
      28       13       15 1        
      29       15       16 1        
      30       16       17 1        
      31       16       41 1        
      32       16       42 1        
      33       17       18 2        
      34       17       19 am       
      35       19       20 1        
      36       19       43 1        
      37       20       25 ar       
      38       20       21 ar       
      39       21       22 ar       
      40       21       44 1        
      41       22       23 ar       
      42       22       45 1        
      43       23       24 ar       
      44       23       26 1        
      45       24       25 ar       
      46       24       46 1        
      47       25       47 1        
      48       27       28 3        

