#        1GCZ_R01_S0001_C0000_L00011_S0001_C0002_G0010_E0001.mol2
#        Tue Jun  6 14:11:21 2017
#        Descriptor:     19    23     1    10     6    12
#        Energy - RMSD - RMSD MassCentre:     -65.7278    999.9999    999.9999
#        Receptor:       1  Surface Point:     1  Conformer:     0
#        Ligand:        11  Surface Point:     1  Conformer:     2
#        BUDE Formal Charge: 0
#        ATOM Count: 47
#        Heavy ATOM Count: 28
@<TRIPOS>MOLECULE
ZINC61303593_1GCZ_R01_S0001_C0000_L00011_S0001_C0002_G0010_E0001
 47 48 0 0 0
SMALL
USER_CHARGES
@<TRIPOS>ATOM
       1 C1         2.2653   -6.2932    5.1010 C.3       1 <0>         0.0220 
       2 O1         2.9531   -5.1285    5.5645 O.3       1 <0>        -0.3006 
       3 C2         3.6473   -5.2183    6.7422 C.ar      1 <0>         0.1008 
       4 C3         4.4139   -6.3316    7.1061 C.ar      1 <0>        -0.1273 
       5 C4         5.1008   -6.3616    8.3257 C.ar      1 <0>        -0.0284 
       6 C5         5.0215   -5.2701    9.1902 C.ar      1 <0>        -0.0603 
       7 C6         4.2558   -4.1549    8.8298 C.ar      1 <0>        -0.1775 
       8 C7         3.5684   -4.1231    7.6107 C.ar      1 <0>         0.1359 
       9 O2         2.8033   -3.0633    7.2003 O.3       1 <0>        -0.2949 
      10 C8         3.3177   -1.7451    7.4065 C.3       1 <0>         0.0554 
      11 C9         2.3141   -0.7198    6.8807 C.3       1 <0>        -0.1108 
      12 C10        2.1005   -0.9389    5.3837 C.3       1 <0>        -0.1085 
      13 C11        1.1087    0.0743    4.8640 C.2       1 <0>         0.4668 
      14 O3         0.6294    0.8781    5.6073 O.2       1 <0>        -0.4984 
      15 O4         0.7632    0.0722    3.5590 O.3       1 <0>        -0.3293 
      16 C12       -0.1795    1.0506    3.1132 C.3       1 <0>         0.0498 
      17 C13       -0.4248    0.8744    1.6337 C.2       1 <0>         0.5168 
      18 O5        -1.5746    0.7802    1.2070 O.2       1 <0>        -0.4913 
      19 N1         0.6031    0.8212    0.7914 N.am      1 <0>        -0.6701 
      20 C14        0.3749    0.6561   -0.5953 C.ar      1 <0>         0.1579 
      21 C15       -0.9338    0.5506   -1.0810 C.ar      1 <0>        -0.1362 
      22 C16       -1.1587    0.3820   -2.4525 C.ar      1 <0>        -0.0710 
      23 C17       -0.0774    0.3268   -3.3377 C.ar      1 <0>        -0.1038 
      24 C18        1.2312    0.4345   -2.8520 C.ar      1 <0>        -0.0707 
      25 C19        1.4580    0.6002   -1.4804 C.ar      1 <0>        -0.1148 
      26 Br1       -0.3837    0.0982   -5.1988 Br        1 <0>        -0.0469 
      27 C20        5.8920   -7.5201    8.6923 C.1       1 <0>         0.2541 
      28 N2         6.5251   -8.4466    8.9862 N.1       1 <0>        -0.4124 
      29 H1         1.5194   -6.5895    5.8354 H         1 <0>         0.1051 
      30 H2         1.7756   -6.0720    4.1549 H         1 <0>         0.0578 
      31 H3         2.9784   -7.1028    4.9602 H         1 <0>         0.0579 
      32 H4         4.5144   -7.2061    6.4806 H         1 <0>         0.1456 
      33 H5         5.5503   -5.2906   10.1316 H         1 <0>         0.1399 
      34 H6         4.2334   -3.3417    9.5403 H         1 <0>         0.1478 
      35 H7         3.4800   -1.5805    8.4696 H         1 <0>         0.0709 
      36 H8         4.2600   -1.6354    6.8739 H         1 <0>         0.0709 
      37 H9         1.3669   -0.8377    7.4027 H         1 <0>         0.0878 
      38 H10        2.6988    0.2840    7.0483 H         1 <0>         0.0877 
      39 H11        3.0468   -0.8205    4.8604 H         1 <0>         0.1149 
      40 H12        1.7151   -1.9422    5.2148 H         1 <0>         0.1150 
      41 H13        0.2160    2.0471    3.2984 H         1 <0>         0.1060 
      42 H14       -1.1158    0.9253    3.6528 H         1 <0>         0.1063 
      43 H15        1.5472    0.8986    1.1418 H         1 <0>         0.4168 
      44 H16       -1.7664    0.6016   -0.3950 H         1 <0>         0.1372 
      45 H17       -2.1673    0.3010   -2.8298 H         1 <0>         0.1390 
      46 H18        2.0646    0.3901   -3.5375 H         1 <0>         0.1383 
      47 H19        2.4656    0.6872   -1.1016 H         1 <0>         0.1486 
@<TRIPOS>BOND
       1        1        2 1        
       2        1       29 1        
       3        1       30 1        
       4        1       31 1        
       5        2        3 1        
       6        3        8 ar       
       7        3        4 ar       
       8        4        5 ar       
       9        4       32 1        
      10        5        6 ar       
      11        5       27 1        
      12        6        7 ar       
      13        6       33 1        
      14        7        8 ar       
      15        7       34 1        
      16        8        9 1        
      17        9       10 1        
      18       10       11 1        
      19       10       35 1        
      20       10       36 1        
      21       11       12 1        
      22       11       37 1        
      23       11       38 1        
      24       12       13 1        
      25       12       39 1        
      26       12       40 1        
      27       13       14 2        
      28       13       15 1        
      29       15       16 1        
      30       16       17 1        
      31       16       41 1        
      32       16       42 1        
      33       17       18 2        
      34       17       19 am       
      35       19       20 1        
      36       19       43 1        
      37       20       25 ar       
      38       20       21 ar       
      39       21       22 ar       
      40       21       44 1        
      41       22       23 ar       
      42       22       45 1        
      43       23       24 ar       
      44       23       26 1        
      45       24       25 ar       
      46       24       46 1        
      47       25       47 1        
      48       27       28 3        

