#        1GCZ_R01_S0001_C0000_L00011_S0001_C0003_G0010_E0001.mol2
#        Tue Jun  6 09:57:54 2017
#        Descriptor:     36    17     7     9     7    14
#        Energy - RMSD - RMSD MassCentre:     -66.9689    999.9999    999.9999
#        Receptor:       1  Surface Point:     1  Conformer:     0
#        Ligand:        11  Surface Point:     1  Conformer:     3
#        BUDE Formal Charge: 0
#        ATOM Count: 47
#        Heavy ATOM Count: 28
@<TRIPOS>MOLECULE
ZINC61303593_1GCZ_R01_S0001_C0000_L00011_S0001_C0003_G0010_E0001
 47 48 0 0 0
SMALL
USER_CHARGES
@<TRIPOS>ATOM
       1 C1         4.5554   -3.4701    4.2884 C.3       1 <0>         0.0220 
       2 O1         3.5743   -2.5478    4.7697 O.3       1 <0>        -0.3006 
       3 C2         3.2387   -2.6010    6.0969 C.ar      1 <0>         0.1008 
       4 C3         3.0754   -3.7964    6.8069 C.ar      1 <0>        -0.1273 
       5 C4         2.7314   -3.7832    8.1639 C.ar      1 <0>        -0.0284 
       6 C5         2.5485   -2.5652    8.8184 C.ar      1 <0>        -0.0603 
       7 C6         2.7108   -1.3677    8.1117 C.ar      1 <0>        -0.1775 
       8 C7         3.0549   -1.3790    6.7548 C.ar      1 <0>         0.1359 
       9 O2         3.2282   -0.2436    6.0081 O.3       1 <0>        -0.2949 
      10 C8         2.2865    0.8194    6.1754 C.3       1 <0>         0.0554 
      11 C9         2.6620    1.9808    5.2562 C.3       1 <0>        -0.1108 
      12 C10        2.6250    1.5112    3.8026 C.3       1 <0>        -0.1085 
      13 C11        1.2292    1.0478    3.4597 C.2       1 <0>         0.4668 
      14 O3         1.0407   -0.0821    3.1192 O.2       1 <0>        -0.4984 
      15 O4         0.1938    1.9105    3.5380 O.3       1 <0>        -0.3293 
      16 C12       -1.1094    1.4261    3.2035 C.3       1 <0>         0.0498 
      17 C13       -1.5053    0.3385    4.1732 C.2       1 <0>         0.5168 
      18 O5        -1.9006   -0.7476    3.7525 O.2       1 <0>        -0.4913 
      19 N1        -1.4265    0.5550    5.4831 N.am      1 <0>        -0.6701 
      20 C14       -1.7971   -0.4632    6.3931 C.ar      1 <0>         0.1579 
      21 C15       -2.2453   -1.6999    5.9141 C.ar      1 <0>        -0.1362 
      22 C16       -2.6168   -2.7052    6.8150 C.ar      1 <0>        -0.0710 
      23 C17       -2.5330   -2.4770    8.1922 C.ar      1 <0>        -0.1038 
      24 C18       -2.0827   -1.2409    8.6710 C.ar      1 <0>        -0.0707 
      25 C19       -1.7135   -0.2335    7.7715 C.ar      1 <0>        -0.1148 
      26 Br1       -3.0373   -3.8419    9.4140 Br        1 <0>        -0.0469 
      27 C20        2.5650   -5.0276    8.8895 C.1       1 <0>         0.2541 
      28 N2         2.4316   -6.0227    9.4705 N.1       1 <0>        -0.4124 
      29 H1         4.2008   -4.4874    4.4397 H         1 <0>         0.1051 
      30 H2         4.7242   -3.2980    3.2275 H         1 <0>         0.0578 
      31 H3         5.4863   -3.3250    4.8326 H         1 <0>         0.0579 
      32 H4         3.2032   -4.7698    6.3568 H         1 <0>         0.1456 
      33 H5         2.2831   -2.5522    9.8651 H         1 <0>         0.1399 
      34 H6         2.5560   -0.4579    8.6726 H         1 <0>         0.1478 
      35 H7         1.2896    0.4650    5.9220 H         1 <0>         0.0709 
      36 H8         2.3000    1.1574    7.2094 H         1 <0>         0.0709 
      37 H9         1.9535    2.7953    5.3916 H         1 <0>         0.0878 
      38 H10        3.6643    2.3272    5.4992 H         1 <0>         0.0877 
      39 H11        2.9044    2.3338    3.1478 H         1 <0>         0.1149 
      40 H12        3.3229    0.6875    3.6691 H         1 <0>         0.1150 
      41 H13       -1.0992    1.0239    2.1928 H         1 <0>         0.1060 
      42 H14       -1.8264    2.2423    3.2625 H         1 <0>         0.1063 
      43 H15       -1.1019    1.4469    5.8286 H         1 <0>         0.4168 
      44 H16       -2.3011   -1.8749    4.8498 H         1 <0>         0.1372 
      45 H17       -2.9623   -3.6603    6.4481 H         1 <0>         0.1390 
      46 H18       -2.0203   -1.0667    9.7350 H         1 <0>         0.1383 
      47 H19       -1.3623    0.7203    8.1362 H         1 <0>         0.1486 
@<TRIPOS>BOND
       1        1        2 1        
       2        1       29 1        
       3        1       30 1        
       4        1       31 1        
       5        2        3 1        
       6        3        8 ar       
       7        3        4 ar       
       8        4        5 ar       
       9        4       32 1        
      10        5        6 ar       
      11        5       27 1        
      12        6        7 ar       
      13        6       33 1        
      14        7        8 ar       
      15        7       34 1        
      16        8        9 1        
      17        9       10 1        
      18       10       11 1        
      19       10       35 1        
      20       10       36 1        
      21       11       12 1        
      22       11       37 1        
      23       11       38 1        
      24       12       13 1        
      25       12       39 1        
      26       12       40 1        
      27       13       14 2        
      28       13       15 1        
      29       15       16 1        
      30       16       17 1        
      31       16       41 1        
      32       16       42 1        
      33       17       18 2        
      34       17       19 am       
      35       19       20 1        
      36       19       43 1        
      37       20       25 ar       
      38       20       21 ar       
      39       21       22 ar       
      40       21       44 1        
      41       22       23 ar       
      42       22       45 1        
      43       23       24 ar       
      44       23       26 1        
      45       24       25 ar       
      46       24       46 1        
      47       25       47 1        
      48       27       28 3        

