#        1GCZ_R01_S0001_C0000_L00011_S0001_C0003_G0010_E0001.mol2
#        Tue Jun  6 14:11:23 2017
#        Descriptor:      6     6    36     9     9    14
#        Energy - RMSD - RMSD MassCentre:     -65.8214    999.9999    999.9999
#        Receptor:       1  Surface Point:     1  Conformer:     0
#        Ligand:        11  Surface Point:     1  Conformer:     3
#        BUDE Formal Charge: 0
#        ATOM Count: 47
#        Heavy ATOM Count: 28
@<TRIPOS>MOLECULE
ZINC61303593_1GCZ_R01_S0001_C0000_L00011_S0001_C0003_G0010_E0001
 47 48 0 0 0
SMALL
USER_CHARGES
@<TRIPOS>ATOM
       1 C1         3.7219   -2.7189    5.3420 C.3       1 <0>         0.0220 
       2 O1         2.8193   -1.6098    5.3556 O.3       1 <0>        -0.3006 
       3 C2         3.3464   -0.3541    5.5048 C.ar      1 <0>         0.1008 
       4 C3         4.3944   -0.0536    6.3830 C.ar      1 <0>        -0.1273 
       5 C4         4.8889    1.2518    6.4893 C.ar      1 <0>        -0.0284 
       6 C5         4.3321    2.2669    5.7116 C.ar      1 <0>        -0.0603 
       7 C6         3.2839    1.9703    4.8323 C.ar      1 <0>        -0.1775 
       8 C7         2.7882    0.6656    4.7247 C.ar      1 <0>         0.1359 
       9 O2         1.7660    0.3108    3.8845 O.3       1 <0>        -0.2949 
      10 C8         0.6331    1.1795    3.8024 C.3       1 <0>         0.0554 
      11 C9        -0.3809    0.6012    2.8164 C.3       1 <0>        -0.1108 
      12 C10       -0.8431   -0.7697    3.3081 C.3       1 <0>        -0.1085 
      13 C11       -1.5031   -0.6228    4.6584 C.2       1 <0>         0.4668 
      14 O3        -1.0510   -1.1873    5.6098 O.2       1 <0>        -0.4984 
      15 O4        -2.6044    0.1465    4.7908 O.3       1 <0>        -0.3293 
      16 C12       -3.1945    0.2553    6.0889 C.3       1 <0>         0.0498 
      17 C13       -2.2139    0.9083    7.0334 C.2       1 <0>         0.5168 
      18 O5        -1.9476    0.3757    8.1096 O.2       1 <0>        -0.4913 
      19 N1        -1.6377    2.0601    6.7013 N.am      1 <0>        -0.6701 
      20 C14       -0.7186    2.6733    7.5853 C.ar      1 <0>         0.1579 
      21 C15       -0.4142    2.0661    8.8094 C.ar      1 <0>        -0.1362 
      22 C16        0.4913    2.6759    9.6860 C.ar      1 <0>        -0.0710 
      23 C17        1.0973    3.8867    9.3358 C.ar      1 <0>        -0.1038 
      24 C18        0.7944    4.4926    8.1107 C.ar      1 <0>        -0.0707 
      25 C19       -0.1130    3.8856    7.2342 C.ar      1 <0>        -0.1148 
      26 Br1        2.3262    4.7133   10.5259 Br        1 <0>        -0.0469 
      27 C20        5.9748    1.5516    7.4023 C.1       1 <0>         0.2541 
      28 N2         6.8434    1.7922    8.1325 N.1       1 <0>        -0.4124 
      29 H1         4.2600   -2.7592    6.2867 H         1 <0>         0.1051 
      30 H2         3.1607   -3.6406    5.2038 H         1 <0>         0.0578 
      31 H3         4.4304   -2.5989    4.5250 H         1 <0>         0.0579 
      32 H4         4.8665   -0.7949    7.0107 H         1 <0>         0.1456 
      33 H5         4.7117    3.2748    5.7916 H         1 <0>         0.1399 
      34 H6         2.8947    2.7977    4.2575 H         1 <0>         0.1478 
      35 H7         0.1726    1.2698    4.7840 H         1 <0>         0.0709 
      36 H8         0.9522    2.1614    3.4592 H         1 <0>         0.0709 
      37 H9        -1.2378    1.2676    2.7436 H         1 <0>         0.0878 
      38 H10        0.0826    0.4973    1.8376 H         1 <0>         0.0877 
      39 H11       -1.5557   -1.1882    2.6005 H         1 <0>         0.1149 
      40 H12        0.0149   -1.4329    3.3947 H         1 <0>         0.1150 
      41 H13       -3.4466   -0.7366    6.4576 H         1 <0>         0.1060 
      42 H14       -4.0965    0.8605    6.0282 H         1 <0>         0.1063 
      43 H15       -1.8564    2.4975    5.8175 H         1 <0>         0.4168 
      44 H16       -0.8784    1.1270    9.0726 H         1 <0>         0.1372 
      45 H17        0.7283    2.2092   10.6305 H         1 <0>         0.1390 
      46 H18        1.2627    5.4283    7.8432 H         1 <0>         0.1383 
      47 H19       -0.3471    4.3476    6.2865 H         1 <0>         0.1486 
@<TRIPOS>BOND
       1        1        2 1        
       2        1       29 1        
       3        1       30 1        
       4        1       31 1        
       5        2        3 1        
       6        3        8 ar       
       7        3        4 ar       
       8        4        5 ar       
       9        4       32 1        
      10        5        6 ar       
      11        5       27 1        
      12        6        7 ar       
      13        6       33 1        
      14        7        8 ar       
      15        7       34 1        
      16        8        9 1        
      17        9       10 1        
      18       10       11 1        
      19       10       35 1        
      20       10       36 1        
      21       11       12 1        
      22       11       37 1        
      23       11       38 1        
      24       12       13 1        
      25       12       39 1        
      26       12       40 1        
      27       13       14 2        
      28       13       15 1        
      29       15       16 1        
      30       16       17 1        
      31       16       41 1        
      32       16       42 1        
      33       17       18 2        
      34       17       19 am       
      35       19       20 1        
      36       19       43 1        
      37       20       25 ar       
      38       20       21 ar       
      39       21       22 ar       
      40       21       44 1        
      41       22       23 ar       
      42       22       45 1        
      43       23       24 ar       
      44       23       26 1        
      45       24       25 ar       
      46       24       46 1        
      47       25       47 1        
      48       27       28 3        

