#        1GCZ_R01_S0001_C0000_L00011_S0001_C0004_G0010_E0001.mol2
#        Tue Jun  6 09:57:55 2017
#        Descriptor:     13     1    32     9     8    14
#        Energy - RMSD - RMSD MassCentre:     -59.3990    999.9999    999.9999
#        Receptor:       1  Surface Point:     1  Conformer:     0
#        Ligand:        11  Surface Point:     1  Conformer:     4
#        BUDE Formal Charge: 0
#        ATOM Count: 47
#        Heavy ATOM Count: 28
@<TRIPOS>MOLECULE
ZINC61303593_1GCZ_R01_S0001_C0000_L00011_S0001_C0004_G0010_E0001
 47 48 0 0 0
SMALL
USER_CHARGES
@<TRIPOS>ATOM
       1 C1        -1.3230   -3.4403    8.1064 C.3       1 <0>         0.0220 
       2 O1        -0.7868   -2.2857    7.4550 O.3       1 <0>        -0.3006 
       3 C2         0.1827   -1.5716    8.1084 C.ar      1 <0>         0.1008 
       4 C3         1.2214   -2.1630    8.8371 C.ar      1 <0>        -0.1273 
       5 C4         2.1826   -1.3763    9.4831 C.ar      1 <0>        -0.0284 
       6 C5         2.1062    0.0139    9.4009 C.ar      1 <0>        -0.0603 
       7 C6         1.0690    0.6090    8.6729 C.ar      1 <0>        -0.1775 
       8 C7         0.1071   -0.1760    8.0264 C.ar      1 <0>         0.1359 
       9 O2        -0.9310    0.3444    7.2995 O.3       1 <0>        -0.2949 
      10 C8        -0.6540    1.4419    6.4256 C.3       1 <0>         0.0554 
      11 C9        -1.9400    1.8647    5.7169 C.3       1 <0>        -0.1108 
      12 C10       -2.4724    0.6957    4.8896 C.3       1 <0>        -0.1085 
      13 C11       -1.4471    0.3067    3.8513 C.2       1 <0>         0.4668 
      14 O3        -0.9788   -0.7928    3.8555 O.2       1 <0>        -0.4984 
      15 O4        -1.0593    1.2016    2.9180 O.3       1 <0>        -0.3293 
      16 C12       -0.0861    0.7877    1.9555 C.3       1 <0>         0.0498 
      17 C13        1.2077    0.4561    2.6600 C.2       1 <0>         0.5168 
      18 O5         1.7611   -0.6232    2.4557 O.2       1 <0>        -0.4913 
      19 N1         1.7493    1.3317    3.5020 N.am      1 <0>        -0.6701 
      20 C14        2.9616    1.0224    4.1629 C.ar      1 <0>         0.1579 
      21 C15        3.5922   -0.2053    3.9289 C.ar      1 <0>        -0.1362 
      22 C16        4.7890   -0.5129    4.5872 C.ar      1 <0>        -0.0710 
      23 C17        5.3582    0.4086    5.4719 C.ar      1 <0>        -0.1038 
      24 C18        4.7286    1.6372    5.7041 C.ar      1 <0>        -0.0707 
      25 C19        3.5302    1.9452    5.0489 C.ar      1 <0>        -0.1148 
      26 Br1        6.9824   -0.0097    6.3645 Br        1 <0>        -0.0469 
      27 C20        3.2541   -1.9997   10.2353 C.1       1 <0>         0.2541 
      28 N2         4.1116   -2.4977   10.8372 N.1       1 <0>        -0.4124 
      29 H1        -1.7877   -3.1437    9.0443 H         1 <0>         0.1051 
      30 H2        -2.0670   -3.9059    7.4635 H         1 <0>         0.0578 
      31 H3        -0.5213   -4.1482    8.3061 H         1 <0>         0.0579 
      32 H4         1.3343   -3.2323    8.9379 H         1 <0>         0.1456 
      33 H5         2.8464    0.6231    9.8982 H         1 <0>         0.1399 
      34 H6         1.0634    1.6887    8.6460 H         1 <0>         0.1478 
      35 H7        -0.2677    2.2784    7.0041 H         1 <0>         0.0709 
      36 H8         0.0845    1.1399    5.6859 H         1 <0>         0.0709 
      37 H9        -2.6841    2.1536    6.4561 H         1 <0>         0.0878 
      38 H10       -1.7331    2.7078    5.0610 H         1 <0>         0.0877 
      39 H11       -2.6665   -0.1527    5.5423 H         1 <0>         0.1149 
      40 H12       -3.3949    0.9914    4.3943 H         1 <0>         0.1150 
      41 H13        0.0854    1.5921    1.2433 H         1 <0>         0.1060 
      42 H14       -0.4475   -0.0929    1.4289 H         1 <0>         0.1063 
      43 H15        1.2949    2.2180    3.6698 H         1 <0>         0.4168 
      44 H16        3.1535   -0.9110    3.2389 H         1 <0>         0.1372 
      45 H17        5.2778   -1.4590    4.4079 H         1 <0>         0.1390 
      46 H18        5.1694    2.3465    6.3888 H         1 <0>         0.1383 
      47 H19        3.0427    2.8931    5.2223 H         1 <0>         0.1486 
@<TRIPOS>BOND
       1        1        2 1        
       2        1       29 1        
       3        1       30 1        
       4        1       31 1        
       5        2        3 1        
       6        3        8 ar       
       7        3        4 ar       
       8        4        5 ar       
       9        4       32 1        
      10        5        6 ar       
      11        5       27 1        
      12        6        7 ar       
      13        6       33 1        
      14        7        8 ar       
      15        7       34 1        
      16        8        9 1        
      17        9       10 1        
      18       10       11 1        
      19       10       35 1        
      20       10       36 1        
      21       11       12 1        
      22       11       37 1        
      23       11       38 1        
      24       12       13 1        
      25       12       39 1        
      26       12       40 1        
      27       13       14 2        
      28       13       15 1        
      29       15       16 1        
      30       16       17 1        
      31       16       41 1        
      32       16       42 1        
      33       17       18 2        
      34       17       19 am       
      35       19       20 1        
      36       19       43 1        
      37       20       25 ar       
      38       20       21 ar       
      39       21       22 ar       
      40       21       44 1        
      41       22       23 ar       
      42       22       45 1        
      43       23       24 ar       
      44       23       26 1        
      45       24       25 ar       
      46       24       46 1        
      47       25       47 1        
      48       27       28 3        

