#        1GCZ_R01_S0001_C0000_L00011_S0001_C0004_G0010_E0001.mol2
#        Tue Jun  6 14:11:25 2017
#        Descriptor:     25     9    24     9     9    14
#        Energy - RMSD - RMSD MassCentre:     -57.3660    999.9999    999.9999
#        Receptor:       1  Surface Point:     1  Conformer:     0
#        Ligand:        11  Surface Point:     1  Conformer:     4
#        BUDE Formal Charge: 0
#        ATOM Count: 47
#        Heavy ATOM Count: 28
@<TRIPOS>MOLECULE
ZINC61303593_1GCZ_R01_S0001_C0000_L00011_S0001_C0004_G0010_E0001
 47 48 0 0 0
SMALL
USER_CHARGES
@<TRIPOS>ATOM
       1 C1        -0.9994   -3.1286    6.7911 C.3       1 <0>         0.0220 
       2 O1        -0.4155   -1.8995    6.3516 O.3       1 <0>        -0.3006 
       3 C2        -1.0096   -0.7292    6.7444 C.ar      1 <0>         0.1008 
       4 C3        -1.5231   -0.5146    8.0289 C.ar      1 <0>        -0.1273 
       5 C4        -2.1193    0.7058    8.3682 C.ar      1 <0>        -0.0284 
       6 C5        -2.2036    1.7217    7.4163 C.ar      1 <0>        -0.0603 
       7 C6        -1.6911    1.5109    6.1307 C.ar      1 <0>        -0.1775 
       8 C7        -1.0948    0.2912    5.7897 C.ar      1 <0>         0.1359 
       9 O2        -0.5750    0.0226    4.5509 O.3       1 <0>        -0.2949 
      10 C8         0.1999    1.0414    3.9134 C.3       1 <0>         0.0554 
      11 C9         0.6796    0.5387    2.5525 C.3       1 <0>        -0.1108 
      12 C10        1.5540   -0.6991    2.7472 C.3       1 <0>        -0.1085 
      13 C11        2.7563   -0.3380    3.5866 C.2       1 <0>         0.4668 
      14 O3         2.9372   -0.8793    4.6366 O.2       1 <0>        -0.4984 
      15 O4         3.6271    0.5967    3.1506 O.3       1 <0>        -0.3293 
      16 C12        4.7506    0.9053    3.9797 C.3       1 <0>         0.0498 
      17 C13        4.2660    1.4829    5.2880 C.2       1 <0>         0.5168 
      18 O5         4.6613    1.0118    6.3532 O.2       1 <0>        -0.4913 
      19 N1         3.4111    2.5018    5.2885 N.am      1 <0>        -0.6701 
      20 C14        2.9560    3.0441    6.5136 C.ar      1 <0>         0.1579 
      21 C15        3.4074    2.5090    7.7259 C.ar      1 <0>        -0.1362 
      22 C16        2.9527    3.0426    8.9378 C.ar      1 <0>        -0.0710 
      23 C17        2.0543    4.1144    8.9375 C.ar      1 <0>        -0.1038 
      24 C18        1.6047    4.6508    7.7251 C.ar      1 <0>        -0.0707 
      25 C19        2.0561    4.1165    6.5123 C.ar      1 <0>        -0.1148 
      26 Br1        1.4379    4.8380   10.5826 Br        1 <0>        -0.0469 
      27 C20       -2.6479    0.9170    9.7018 C.1       1 <0>         0.2541 
      28 N2        -3.0710    1.0867   10.7685 N.1       1 <0>        -0.4124 
      29 H1        -2.0180   -3.2001    6.4156 H         1 <0>         0.1051 
      30 H2        -0.4133   -3.9635    6.4129 H         1 <0>         0.0578 
      31 H3        -1.0104   -3.1556    7.8787 H         1 <0>         0.0579 
      32 H4        -1.4880   -1.2612    8.8085 H         1 <0>         0.1456 
      33 H5        -2.6630    2.6641    7.6754 H         1 <0>         0.1399 
      34 H6        -1.7859    2.3344    5.4383 H         1 <0>         0.1478 
      35 H7        -0.4118    1.9305    3.7757 H         1 <0>         0.0709 
      36 H8         1.0603    1.2848    4.5332 H         1 <0>         0.0709 
      37 H9        -0.1797    0.2817    1.9366 H         1 <0>         0.0878 
      38 H10        1.2589    1.3175    2.0610 H         1 <0>         0.0877 
      39 H11        0.9800   -1.4738    3.2512 H         1 <0>         0.1149 
      40 H12        1.8860   -1.0655    1.7781 H         1 <0>         0.1150 
      41 H13        5.3850    1.6317    3.4762 H         1 <0>         0.1060 
      42 H14        5.3195   -0.0016    4.1730 H         1 <0>         0.1063 
      43 H15        3.0865    2.8886    4.4138 H         1 <0>         0.4168 
      44 H16        4.1073    1.6864    7.7218 H         1 <0>         0.1372 
      45 H17        3.2998    2.6320    9.8743 H         1 <0>         0.1390 
      46 H18        0.9098    5.4776    7.7276 H         1 <0>         0.1383 
      47 H19        1.7147    4.5293    5.5746 H         1 <0>         0.1486 
@<TRIPOS>BOND
       1        1        2 1        
       2        1       29 1        
       3        1       30 1        
       4        1       31 1        
       5        2        3 1        
       6        3        8 ar       
       7        3        4 ar       
       8        4        5 ar       
       9        4       32 1        
      10        5        6 ar       
      11        5       27 1        
      12        6        7 ar       
      13        6       33 1        
      14        7        8 ar       
      15        7       34 1        
      16        8        9 1        
      17        9       10 1        
      18       10       11 1        
      19       10       35 1        
      20       10       36 1        
      21       11       12 1        
      22       11       37 1        
      23       11       38 1        
      24       12       13 1        
      25       12       39 1        
      26       12       40 1        
      27       13       14 2        
      28       13       15 1        
      29       15       16 1        
      30       16       17 1        
      31       16       41 1        
      32       16       42 1        
      33       17       18 2        
      34       17       19 am       
      35       19       20 1        
      36       19       43 1        
      37       20       25 ar       
      38       20       21 ar       
      39       21       22 ar       
      40       21       44 1        
      41       22       23 ar       
      42       22       45 1        
      43       23       24 ar       
      44       23       26 1        
      45       24       25 ar       
      46       24       46 1        
      47       25       47 1        
      48       27       28 3        

