#        1GCZ_R01_S0001_C0000_L00011_S0001_C0005_G0010_E0001.mol2
#        Tue Jun  6 09:57:56 2017
#        Descriptor:     33    22    22    14     9    13
#        Energy - RMSD - RMSD MassCentre:     -64.8956    999.9999    999.9999
#        Receptor:       1  Surface Point:     1  Conformer:     0
#        Ligand:        11  Surface Point:     1  Conformer:     5
#        BUDE Formal Charge: 0
#        ATOM Count: 47
#        Heavy ATOM Count: 28
@<TRIPOS>MOLECULE
ZINC61303593_1GCZ_R01_S0001_C0000_L00011_S0001_C0005_G0010_E0001
 47 48 0 0 0
SMALL
USER_CHARGES
@<TRIPOS>ATOM
       1 C1         2.3215   -1.9830    8.2945 C.3       1 <0>         0.0220 
       2 O1         2.2443   -1.8132    6.8767 O.3       1 <0>        -0.3006 
       3 C2         1.3213   -0.9284    6.3849 C.ar      1 <0>         0.1008 
       4 C3         0.0239   -0.7995    6.8947 C.ar      1 <0>        -0.1273 
       5 C4        -0.8732    0.1253    6.3470 C.ar      1 <0>        -0.0284 
       6 C5        -0.4715    0.9290    5.2803 C.ar      1 <0>        -0.0603 
       7 C6         0.8251    0.8031    4.7677 C.ar      1 <0>        -0.1775 
       8 C7         1.7235   -0.1212    5.3142 C.ar      1 <0>         0.1359 
       9 O2         3.0040   -0.2925    4.8585 O.3       1 <0>        -0.2949 
      10 C8         3.7678    0.8760    4.5487 C.3       1 <0>         0.0554 
      11 C9         5.1557    0.4620    4.0618 C.3       1 <0>        -0.1108 
      12 C10        5.8698   -0.3178    5.1648 C.3       1 <0>        -0.1085 
      13 C11        7.2414   -0.7269    4.6835 C.2       1 <0>         0.4668 
      14 O3         7.5305   -1.8844    4.6141 O.2       1 <0>        -0.4984 
      15 O4         8.1417    0.2155    4.3314 O.3       1 <0>        -0.3293 
      16 C12        9.4274   -0.2200    3.8818 C.3       1 <0>         0.0498 
      17 C13       10.2743    0.9828    3.5411 C.2       1 <0>         0.5168 
      18 O5        10.8348    1.0517    2.4484 O.2       1 <0>        -0.4913 
      19 N1        10.4143    1.9684    4.4231 N.am      1 <0>        -0.6701 
      20 C14       11.2076    3.0962    4.1053 C.ar      1 <0>         0.1579 
      21 C15       11.8440    3.1753    2.8609 C.ar      1 <0>        -0.1362 
      22 C16       12.6331    4.2890    2.5491 C.ar      1 <0>        -0.0710 
      23 C17       12.7793    5.3252    3.4768 C.ar      1 <0>        -0.1038 
      24 C18       12.1410    5.2469    4.7203 C.ar      1 <0>        -0.0707 
      25 C19       11.3539    4.1326    5.0349 C.ar      1 <0>        -0.1148 
      26 Br1       13.8501    6.8363    3.0526 Br        1 <0>        -0.0469 
      27 C20       -2.2147    0.2503    6.8831 C.1       1 <0>         0.2541 
      28 N2        -3.2880    0.3508    7.3115 N.1       1 <0>        -0.4124 
      29 H1         1.3672   -2.3483    8.6678 H         1 <0>         0.1051 
      30 H2         3.1035   -2.7017    8.5309 H         1 <0>         0.0578 
      31 H3         2.5529   -1.0279    8.7614 H         1 <0>         0.0579 
      32 H4        -0.3458   -1.3922    7.7183 H         1 <0>         0.1456 
      33 H5        -1.1616    1.6431    4.8559 H         1 <0>         0.1399 
      34 H6         1.0770    1.4523    3.9422 H         1 <0>         0.1478 
      35 H7         3.2645    1.4427    3.7682 H         1 <0>         0.0709 
      36 H8         3.8658    1.4927    5.4396 H         1 <0>         0.0709 
      37 H9         5.0585   -0.1664    3.1790 H         1 <0>         0.0878 
      38 H10        5.7336    1.3498    3.8139 H         1 <0>         0.0877 
      39 H11        5.9684    0.3098    6.0480 H         1 <0>         0.1149 
      40 H12        5.2933   -1.2064    5.4132 H         1 <0>         0.1150 
      41 H13        9.3113   -0.8431    2.9977 H         1 <0>         0.1060 
      42 H14        9.9126   -0.7930    4.6691 H         1 <0>         0.1063 
      43 H15        9.9541    1.9118    5.3204 H         1 <0>         0.4168 
      44 H16       11.7223    2.3765    2.1442 H         1 <0>         0.1372 
      45 H17       13.1246    4.3527    1.5896 H         1 <0>         0.1390 
      46 H18       12.2566    6.0479    5.4355 H         1 <0>         0.1383 
      47 H19       10.8569    4.0695    5.9916 H         1 <0>         0.1486 
@<TRIPOS>BOND
       1        1        2 1        
       2        1       29 1        
       3        1       30 1        
       4        1       31 1        
       5        2        3 1        
       6        3        8 ar       
       7        3        4 ar       
       8        4        5 ar       
       9        4       32 1        
      10        5        6 ar       
      11        5       27 1        
      12        6        7 ar       
      13        6       33 1        
      14        7        8 ar       
      15        7       34 1        
      16        8        9 1        
      17        9       10 1        
      18       10       11 1        
      19       10       35 1        
      20       10       36 1        
      21       11       12 1        
      22       11       37 1        
      23       11       38 1        
      24       12       13 1        
      25       12       39 1        
      26       12       40 1        
      27       13       14 2        
      28       13       15 1        
      29       15       16 1        
      30       16       17 1        
      31       16       41 1        
      32       16       42 1        
      33       17       18 2        
      34       17       19 am       
      35       19       20 1        
      36       19       43 1        
      37       20       25 ar       
      38       20       21 ar       
      39       21       22 ar       
      40       21       44 1        
      41       22       23 ar       
      42       22       45 1        
      43       23       24 ar       
      44       23       26 1        
      45       24       25 ar       
      46       24       46 1        
      47       25       47 1        
      48       27       28 3        

