#        1GCZ_R01_S0001_C0000_L00011_S0001_C0005_G0010_E0001.mol2
#        Tue Jun  6 14:11:27 2017
#        Descriptor:     34    22    22    14     8    13
#        Energy - RMSD - RMSD MassCentre:     -64.8934    999.9999    999.9999
#        Receptor:       1  Surface Point:     1  Conformer:     0
#        Ligand:        11  Surface Point:     1  Conformer:     5
#        BUDE Formal Charge: 0
#        ATOM Count: 47
#        Heavy ATOM Count: 28
@<TRIPOS>MOLECULE
ZINC61303593_1GCZ_R01_S0001_C0000_L00011_S0001_C0005_G0010_E0001
 47 48 0 0 0
SMALL
USER_CHARGES
@<TRIPOS>ATOM
       1 C1         2.2749   -2.9058    8.3111 C.3       1 <0>         0.0220 
       2 O1         2.1050   -2.5784    6.9295 O.3       1 <0>        -0.3006 
       3 C2         1.2547   -1.5523    6.6122 C.ar      1 <0>         0.1008 
       4 C3         0.0258   -1.3401    7.2483 C.ar      1 <0>        -0.1273 
       5 C4        -0.7988   -0.2714    6.8771 C.ar      1 <0>        -0.0284 
       6 C5        -0.3929    0.5938    5.8614 C.ar      1 <0>        -0.0603 
       7 C6         0.8353    0.3850    5.2228 C.ar      1 <0>        -0.1775 
       8 C7         1.6610   -0.6832    5.5927 C.ar      1 <0>         0.1359 
       9 O2         2.8727   -0.9413    5.0076 O.3       1 <0>        -0.2949 
      10 C8         3.7396    0.1650    4.7444 C.3       1 <0>         0.0554 
      11 C9         5.0269   -0.3412    4.0949 C.3       1 <0>        -0.1108 
      12 C10        5.7314   -1.3062    5.0473 C.3       1 <0>        -0.1085 
      13 C11        7.0035   -1.8064    4.4054 C.2       1 <0>         0.4668 
      14 O3         7.1499   -2.9741    4.1979 O.2       1 <0>        -0.4984 
      15 O4         7.9760   -0.9338    4.0658 O.3       1 <0>        -0.3293 
      16 C12        9.1625   -1.4541    3.4607 C.3       1 <0>         0.0498 
      17 C13       10.1134   -0.3196    3.1625 C.2       1 <0>         0.5168 
      18 O5        10.5891   -0.1950    2.0351 O.2       1 <0>        -0.4913 
      19 N1        10.4367    0.5455    4.1195 N.am      1 <0>        -0.6701 
      20 C14       11.3276    1.6091    3.8417 C.ar      1 <0>         0.1579 
      21 C15       11.8675    1.7518    2.5580 C.ar      1 <0>        -0.1362 
      22 C16       12.7531    2.8014    2.2851 C.ar      1 <0>        -0.0710 
      23 C17       13.0920    3.7111    3.2918 C.ar      1 <0>        -0.1038 
      24 C18       12.5502    3.5694    4.5748 C.ar      1 <0>        -0.0707 
      25 C19       11.6668    2.5188    4.8503 C.ar      1 <0>        -0.1148 
      26 Br1       14.2936    5.1351    2.9204 Br        1 <0>        -0.0469 
      27 C20       -2.0696   -0.0612    7.5430 C.1       1 <0>         0.2541 
      28 N2        -3.0864    0.1075    8.0753 N.1       1 <0>        -0.4124 
      29 H1         1.3175   -3.2044    8.7327 H         1 <0>         0.1051 
      30 H2         2.9846   -3.7253    8.4043 H         1 <0>         0.0578 
      31 H3         2.6520   -2.0363    8.8455 H         1 <0>         0.0579 
      32 H4        -0.3433   -1.9743    8.0407 H         1 <0>         0.1456 
      33 H5        -1.0271    1.4190    5.5730 H         1 <0>         0.1399 
      34 H6         1.0941    1.0878    4.4447 H         1 <0>         0.1478 
      35 H7         3.2448    0.8623    4.0717 H         1 <0>         0.0709 
      36 H8         3.9793    0.6690    5.6783 H         1 <0>         0.0709 
      37 H9         4.7873   -0.8577    3.1679 H         1 <0>         0.0878 
      38 H10        5.6822    0.5009    3.8828 H         1 <0>         0.0877 
      39 H11        5.9722   -0.7907    5.9745 H         1 <0>         0.1149 
      40 H12        5.0774   -2.1493    5.2597 H         1 <0>         0.1150 
      41 H13        8.9047   -1.9633    2.5345 H         1 <0>         0.1060 
      42 H14        9.6392   -2.1566    4.1410 H         1 <0>         0.1063 
      43 H15       10.0460    0.4431    5.0453 H         1 <0>         0.4168 
      44 H16       11.5971    1.0518    1.7813 H         1 <0>         0.1372 
      45 H17       13.1705    2.9141    1.2955 H         1 <0>         0.1390 
      46 H18       12.8147    4.2724    5.3509 H         1 <0>         0.1383 
      47 H19       11.2437    2.4076    5.8376 H         1 <0>         0.1486 
@<TRIPOS>BOND
       1        1        2 1        
       2        1       29 1        
       3        1       30 1        
       4        1       31 1        
       5        2        3 1        
       6        3        8 ar       
       7        3        4 ar       
       8        4        5 ar       
       9        4       32 1        
      10        5        6 ar       
      11        5       27 1        
      12        6        7 ar       
      13        6       33 1        
      14        7        8 ar       
      15        7       34 1        
      16        8        9 1        
      17        9       10 1        
      18       10       11 1        
      19       10       35 1        
      20       10       36 1        
      21       11       12 1        
      22       11       37 1        
      23       11       38 1        
      24       12       13 1        
      25       12       39 1        
      26       12       40 1        
      27       13       14 2        
      28       13       15 1        
      29       15       16 1        
      30       16       17 1        
      31       16       41 1        
      32       16       42 1        
      33       17       18 2        
      34       17       19 am       
      35       19       20 1        
      36       19       43 1        
      37       20       25 ar       
      38       20       21 ar       
      39       21       22 ar       
      40       21       44 1        
      41       22       23 ar       
      42       22       45 1        
      43       23       24 ar       
      44       23       26 1        
      45       24       25 ar       
      46       24       46 1        
      47       25       47 1        
      48       27       28 3        

