#        1GCZ_R01_S0001_C0000_L00011_S0001_C0006_G0010_E0001.mol2
#        Tue Jun  6 09:57:57 2017
#        Descriptor:      8     1    28     9     4    14
#        Energy - RMSD - RMSD MassCentre:     -69.2005    999.9999    999.9999
#        Receptor:       1  Surface Point:     1  Conformer:     0
#        Ligand:        11  Surface Point:     1  Conformer:     6
#        BUDE Formal Charge: 0
#        ATOM Count: 47
#        Heavy ATOM Count: 28
@<TRIPOS>MOLECULE
ZINC61303593_1GCZ_R01_S0001_C0000_L00011_S0001_C0006_G0010_E0001
 47 48 0 0 0
SMALL
USER_CHARGES
@<TRIPOS>ATOM
       1 C1        -3.0438    0.4843    5.9437 C.3       1 <0>         0.0220 
       2 O1        -1.9869   -0.4582    5.7448 O.3       1 <0>        -0.3006 
       3 C2        -1.0516   -0.1813    4.7828 C.ar      1 <0>         0.1008 
       4 C3        -1.3645    0.3686    3.5341 C.ar      1 <0>        -0.1273 
       5 C4        -0.3611    0.6284    2.5931 C.ar      1 <0>        -0.0284 
       6 C5         0.9674    0.3366    2.9016 C.ar      1 <0>        -0.0603 
       7 C6         1.2844   -0.2135    4.1493 C.ar      1 <0>        -0.1775 
       8 C7         0.2822   -0.4738    5.0914 C.ar      1 <0>         0.1359 
       9 O2         0.5266   -1.0102    6.3281 O.3       1 <0>        -0.2949 
      10 C8         1.4543   -2.0948    6.4175 C.3       1 <0>         0.0554 
      11 C9         1.5787   -2.5388    7.8742 C.3       1 <0>        -0.1108 
      12 C10        0.2162   -3.0102    8.3802 C.3       1 <0>        -0.1085 
      13 C11       -0.2500   -4.1822    7.5500 C.2       1 <0>         0.4668 
      14 O3        -1.2661   -4.1064    6.9254 O.2       1 <0>        -0.4984 
      15 O4         0.4813   -5.3163    7.5133 O.3       1 <0>        -0.3293 
      16 C12       -0.0003   -6.3993    6.7133 C.3       1 <0>         0.0498 
      17 C13        0.9587   -7.5616    6.8115 C.2       1 <0>         0.5168 
      18 O5         0.5411   -8.6816    7.1017 O.2       1 <0>        -0.4913 
      19 N1         2.2556   -7.3742    6.5842 N.am      1 <0>        -0.6701 
      20 C14        3.1555   -8.4623    6.6758 C.ar      1 <0>         0.1579 
      21 C15        2.6799   -9.7373    7.0043 C.ar      1 <0>        -0.1362 
      22 C16        3.5715  -10.8126    7.1000 C.ar      1 <0>        -0.0710 
      23 C17        4.9350  -10.6148    6.8601 C.ar      1 <0>        -0.1038 
      24 C18        5.4101   -9.3401    6.5295 C.ar      1 <0>        -0.0707 
      25 C19        4.5203   -8.2632    6.4362 C.ar      1 <0>        -0.1148 
      26 Br1        6.1441  -12.0746    6.9900 Br        1 <0>        -0.0469 
      27 C20       -0.6967    1.1981    1.3027 C.1       1 <0>         0.2541 
      28 N2        -0.9647    1.6538    0.2702 N.1       1 <0>        -0.4124 
      29 H1        -3.6181    0.5834    5.0250 H         1 <0>         0.1051 
      30 H2        -3.6942    0.1355    6.7431 H         1 <0>         0.0578 
      31 H3        -2.6216    1.4499    6.2142 H         1 <0>         0.0579 
      32 H4        -2.3728    0.6160    3.2366 H         1 <0>         0.1456 
      33 H5         1.7435    0.5360    2.1775 H         1 <0>         0.1399 
      34 H6         2.3296   -0.4173    4.3292 H         1 <0>         0.1478 
      35 H7         1.0988   -2.9276    5.8143 H         1 <0>         0.0709 
      36 H8         2.4272   -1.7717    6.0532 H         1 <0>         0.0709 
      37 H9         2.2937   -3.3557    7.9453 H         1 <0>         0.0878 
      38 H10        1.9208   -1.7029    8.4809 H         1 <0>         0.0877 
      39 H11        0.3007   -3.3148    9.4212 H         1 <0>         0.1149 
      40 H12       -0.5031   -2.1983    8.2966 H         1 <0>         0.1150 
      41 H13       -0.0760   -6.0792    5.6763 H         1 <0>         0.1060 
      42 H14       -0.9804   -6.7074    7.0710 H         1 <0>         0.1063 
      43 H15        2.5984   -6.4545    6.3459 H         1 <0>         0.4168 
      44 H16        1.6250   -9.8874    7.1811 H         1 <0>         0.1372 
      45 H17        3.2071  -11.7972    7.3527 H         1 <0>         0.1390 
      46 H18        6.4637   -9.1897    6.3461 H         1 <0>         0.1383 
      47 H19        4.8817   -7.2788    6.1781 H         1 <0>         0.1486 
@<TRIPOS>BOND
       1        1        2 1        
       2        1       29 1        
       3        1       30 1        
       4        1       31 1        
       5        2        3 1        
       6        3        8 ar       
       7        3        4 ar       
       8        4        5 ar       
       9        4       32 1        
      10        5        6 ar       
      11        5       27 1        
      12        6        7 ar       
      13        6       33 1        
      14        7        8 ar       
      15        7       34 1        
      16        8        9 1        
      17        9       10 1        
      18       10       11 1        
      19       10       35 1        
      20       10       36 1        
      21       11       12 1        
      22       11       37 1        
      23       11       38 1        
      24       12       13 1        
      25       12       39 1        
      26       12       40 1        
      27       13       14 2        
      28       13       15 1        
      29       15       16 1        
      30       16       17 1        
      31       16       41 1        
      32       16       42 1        
      33       17       18 2        
      34       17       19 am       
      35       19       20 1        
      36       19       43 1        
      37       20       25 ar       
      38       20       21 ar       
      39       21       22 ar       
      40       21       44 1        
      41       22       23 ar       
      42       22       45 1        
      43       23       24 ar       
      44       23       26 1        
      45       24       25 ar       
      46       24       46 1        
      47       25       47 1        
      48       27       28 3        

