#        1GCZ_R01_S0001_C0000_L00011_S0001_C0006_G0010_E0001.mol2
#        Tue Jun  6 14:11:29 2017
#        Descriptor:     36    30    26     8    10    13
#        Energy - RMSD - RMSD MassCentre:     -70.5319    999.9999    999.9999
#        Receptor:       1  Surface Point:     1  Conformer:     0
#        Ligand:        11  Surface Point:     1  Conformer:     6
#        BUDE Formal Charge: 0
#        ATOM Count: 47
#        Heavy ATOM Count: 28
@<TRIPOS>MOLECULE
ZINC61303593_1GCZ_R01_S0001_C0000_L00011_S0001_C0006_G0010_E0001
 47 48 0 0 0
SMALL
USER_CHARGES
@<TRIPOS>ATOM
       1 C1         0.2027    1.6267   11.0236 C.3       1 <0>         0.0220 
       2 O1         0.0235    1.9390    9.6397 O.3       1 <0>        -0.3006 
       3 C2        -0.5193    3.1558    9.3206 C.ar      1 <0>         0.1008 
       4 C3        -1.5803    3.7386   10.0235 C.ar      1 <0>        -0.1273 
       5 C4        -2.0906    4.9866    9.6466 C.ar      1 <0>        -0.0284 
       6 C5        -1.5364    5.6592    8.5577 C.ar      1 <0>        -0.0603 
       7 C6        -0.4753    5.0795    7.8521 C.ar      1 <0>        -0.1775 
       8 C7         0.0362    3.8317    8.2277 C.ar      1 <0>         0.1359 
       9 O2         1.0717    3.2117    7.5795 O.3       1 <0>        -0.2949 
      10 C8         1.0783    3.2353    6.1498 C.3       1 <0>         0.0554 
      11 C9         2.3102    2.4926    5.6346 C.3       1 <0>        -0.1108 
      12 C10        2.2618    1.0398    6.1052 C.3       1 <0>        -0.1085 
      13 C11        1.0236    0.3741    5.5538 C.2       1 <0>         0.4668 
      14 O3         0.2000   -0.0680    6.2985 O.2       1 <0>        -0.4984 
      15 O4         0.8469    0.2782    4.2190 O.3       1 <0>        -0.3293 
      16 C12       -0.3411   -0.3605    3.7438 C.3       1 <0>         0.0498 
      17 C13       -0.3413   -0.3616    2.2338 C.2       1 <0>         0.5168 
      18 O5        -0.5263   -1.4107    1.6188 O.2       1 <0>        -0.4913 
      19 N1        -0.1413    0.7724    1.5684 N.am      1 <0>        -0.6701 
      20 C14       -0.1412    0.7730    0.1534 C.ar      1 <0>         0.1579 
      21 C15       -0.3535   -0.4207   -0.5464 C.ar      1 <0>        -0.1362 
      22 C16       -0.3481   -0.4204   -1.9465 C.ar      1 <0>        -0.0710 
      23 C17       -0.1384    0.7726   -2.6455 C.ar      1 <0>        -0.1038 
      24 C18        0.0717    1.9666   -1.9455 C.ar      1 <0>        -0.0707 
      25 C19        0.0694    1.9676   -0.5454 C.ar      1 <0>        -0.1148 
      26 Br1       -0.1314    0.7720   -4.5454 Br        1 <0>        -0.0469 
      27 C20       -3.1899    5.5810   10.3819 C.1       1 <0>         0.2541 
      28 N2        -4.0694    6.0569   10.9698 N.1       1 <0>        -0.4124 
      29 H1        -0.7631    1.6346   11.5245 H         1 <0>         0.1051 
      30 H2         0.6523    0.6404   11.1168 H         1 <0>         0.0578 
      31 H3         0.8550    2.3680   11.4805 H         1 <0>         0.0579 
      32 H4        -2.0511    3.2681   10.8740 H         1 <0>         0.1456 
      33 H5        -1.9282    6.6221    8.2647 H         1 <0>         0.1399 
      34 H6        -0.0889    5.6483    7.0192 H         1 <0>         0.1478 
      35 H7         0.1798    2.7500    5.7742 H         1 <0>         0.0709 
      36 H8         1.1060    4.2663    5.8035 H         1 <0>         0.0709 
      37 H9         2.3231    2.5206    4.5471 H         1 <0>         0.0878 
      38 H10        3.2092    2.9685    6.0208 H         1 <0>         0.0877 
      39 H11        3.1449    0.5130    5.7496 H         1 <0>         0.1149 
      40 H12        2.2349    1.0108    7.1924 H         1 <0>         0.1150 
      41 H13       -1.2134    0.1797    4.1055 H         1 <0>         0.1060 
      42 H14       -0.3724   -1.3856    4.1066 H         1 <0>         0.1063 
      43 H15        0.0106    1.6338    2.0734 H         1 <0>         0.4168 
      44 H16       -0.5229   -1.3385   -0.0029 H         1 <0>         0.1372 
      45 H17       -0.5122   -1.3398   -2.4887 H         1 <0>         0.1390 
      46 H18        0.2348    2.8863   -2.4876 H         1 <0>         0.1383 
      47 H19        0.2277    2.8869   -0.0012 H         1 <0>         0.1486 
@<TRIPOS>BOND
       1        1        2 1        
       2        1       29 1        
       3        1       30 1        
       4        1       31 1        
       5        2        3 1        
       6        3        8 ar       
       7        3        4 ar       
       8        4        5 ar       
       9        4       32 1        
      10        5        6 ar       
      11        5       27 1        
      12        6        7 ar       
      13        6       33 1        
      14        7        8 ar       
      15        7       34 1        
      16        8        9 1        
      17        9       10 1        
      18       10       11 1        
      19       10       35 1        
      20       10       36 1        
      21       11       12 1        
      22       11       37 1        
      23       11       38 1        
      24       12       13 1        
      25       12       39 1        
      26       12       40 1        
      27       13       14 2        
      28       13       15 1        
      29       15       16 1        
      30       16       17 1        
      31       16       41 1        
      32       16       42 1        
      33       17       18 2        
      34       17       19 am       
      35       19       20 1        
      36       19       43 1        
      37       20       25 ar       
      38       20       21 ar       
      39       21       22 ar       
      40       21       44 1        
      41       22       23 ar       
      42       22       45 1        
      43       23       24 ar       
      44       23       26 1        
      45       24       25 ar       
      46       24       46 1        
      47       25       47 1        
      48       27       28 3        

