#        1GCZ_R01_S0001_C0000_L00003_S0001_C0012_G0010_E0001.mol2
#        Tue Jun  6 14:03:50 2017
#        Descriptor:     11     9     3    11     4    15
#        Energy - RMSD - RMSD MassCentre:     -54.9502    999.9999    999.9999
#        Receptor:       1  Surface Point:     1  Conformer:     0
#        Ligand:         3  Surface Point:     1  Conformer:    12
#        BUDE Formal Charge: 0
#        ATOM Count: 58
#        Heavy ATOM Count: 30
@<TRIPOS>MOLECULE
ZINC61580633_1GCZ_R01_S0001_C0000_L00003_S0001_C0012_G0010_E0001
 58 59 0 0 0
SMALL
USER_CHARGES
@<TRIPOS>ATOM
       1 C1        -2.1964   -5.4230   11.3783 C.3       1 <0>        -0.1532 
       2 C2        -0.8136   -6.0414   11.1942 C.3       1 <0>        -0.1224 
       3 C3         0.2252   -4.9304   11.0496 C.3       1 <0>        -0.1198 
       4 C4         1.6099   -5.5496   10.8652 C.3       1 <0>         0.0610 
       5 O1         1.6348   -6.3069    9.6524 O.3       1 <0>        -0.3878 
       6 C5         2.9104   -6.9122    9.4262 C.3       1 <0>         0.0487 
       7 C6         2.8728   -7.7043    8.1200 C.3       1 <0>         0.1244 
       8 N1         2.8431   -6.7723    6.9836 N.am      1 <0>        -0.7216 
       9 C7         2.8077   -7.2420    5.7398 C.2       1 <0>         0.5161 
      10 O2         2.7999   -8.4554    5.5398 O.2       1 <0>        -0.5151 
      11 C8         2.7773   -6.2846    4.5724 C.3       1 <0>         0.0490 
      12 O3         4.0412   -5.6244    4.4653 O.3       1 <0>        -0.3194 
      13 C9         5.1299   -6.3792    4.2056 C.2       1 <0>         0.5417 
      14 O4         5.0179   -7.5864    4.0698 O.2       1 <0>        -0.5337 
      15 C10        6.4600   -5.7417    4.0857 C.2       1 <0>        -0.2559 
      16 C11        7.7175   -6.4747    3.8172 C.2       1 <0>        -0.0791 
      17 C12        8.7781   -5.6653    3.7708 C.2       1 <0>        -0.2585 
      18 S1         8.3537   -3.9680    4.0381 S.3       1 <0>         0.3028 
      19 C13        6.6533   -4.4230    4.2234 C.2       1 <0>         0.0893 
      20 N2         5.6240   -3.5585    4.4881 N.am      1 <0>        -0.6099 
      21 C14        5.8642   -2.2567    4.6167 C.2       1 <0>         0.5551 
      22 O5         7.0111   -1.8286    4.4978 O.2       1 <0>        -0.4939 
      23 C15        4.7511   -1.3241    4.9026 C.ar      1 <0>        -0.1466 
      24 C16        5.0493    0.0375    5.0332 C.ar      1 <0>        -0.0772 
      25 C17        4.0519    0.9580    5.3759 C.ar      1 <0>        -0.1241 
      26 C18        2.7383    0.5320    5.6046 C.ar      1 <0>        -0.0446 
      27 C19        2.4261   -0.8206    5.4228 C.ar      1 <0>        -0.1261 
      28 C20        3.4206   -1.7333    5.0515 C.ar      1 <0>        -0.0460 
      29 C21        1.6904    1.5310    6.0339 C.3       1 <0>        -0.0928 
      30 C22        1.6562    1.6080    7.5575 C.3       1 <0>        -0.1485 
      31 H1        -2.4431   -4.8215   10.5059 H         1 <0>         0.0567 
      32 H2        -2.1961   -4.7932   12.2654 H         1 <0>         0.0554 
      33 H3        -2.9342   -6.2141   11.4947 H         1 <0>         0.0557 
      34 H4        -0.5711   -6.6534   12.0605 H         1 <0>         0.0632 
      35 H5        -0.8086   -6.6604   10.2994 H         1 <0>         0.0635 
      36 H6        -0.0158   -4.3181   10.1832 H         1 <0>         0.0711 
      37 H7         0.2218   -4.3112   11.9443 H         1 <0>         0.0704 
      38 H8         2.3571   -4.7604   10.8147 H         1 <0>         0.0498 
      39 H9         1.8296   -6.2048   11.7056 H         1 <0>         0.0505 
      40 H10        3.1455   -7.5832   10.2497 H         1 <0>         0.0584 
      41 H11        3.6727   -6.1389    9.3588 H         1 <0>         0.0702 
      42 H12        1.9822   -8.3288    8.0994 H         1 <0>         0.0872 
      43 H13        3.7586   -8.3320    8.0503 H         1 <0>         0.0805 
      44 H14        2.8494   -5.7756    7.1467 H         1 <0>         0.4058 
      45 H15        2.5779   -6.8357    3.6558 H         1 <0>         0.1008 
      46 H16        1.9947   -5.5453    4.7293 H         1 <0>         0.0999 
      47 H17        7.7482   -7.5437    3.6667 H         1 <0>         0.1557 
      48 H18        9.7786   -6.0222    3.5765 H         1 <0>         0.1929 
      49 H19        4.6822   -3.9100    4.5857 H         1 <0>         0.4317 
      50 H20        6.0598    0.3833    4.8728 H         1 <0>         0.1287 
      51 H21        4.2925    2.0068    5.4677 H         1 <0>         0.1326 
      52 H22        1.4076   -1.1486    5.5690 H         1 <0>         0.1342 
      53 H23        3.1094   -2.7512    4.8683 H         1 <0>         0.1410 
      54 H24        0.7169    1.2159    5.6641 H         1 <0>         0.0777 
      55 H25        1.9345    2.5096    5.6260 H         1 <0>         0.0771 
      56 H26        2.6265    1.9352    7.9253 H         1 <0>         0.0623 
      57 H27        1.4259    0.6256    7.9646 H         1 <0>         0.0572 
      58 H28        0.8921    2.3178    7.8670 H         1 <0>         0.0578 
@<TRIPOS>BOND
       1        1        2 1        
       2        1       31 1        
       3        1       32 1        
       4        1       33 1        
       5        2        3 1        
       6        2       34 1        
       7        2       35 1        
       8        3        4 1        
       9        3       36 1        
      10        3       37 1        
      11        4        5 1        
      12        4       38 1        
      13        4       39 1        
      14        5        6 1        
      15        6        7 1        
      16        6       40 1        
      17        6       41 1        
      18        7        8 1        
      19        7       42 1        
      20        7       43 1        
      21        8        9 am       
      22        8       44 1        
      23        9       10 2        
      24        9       11 1        
      25       11       12 1        
      26       11       45 1        
      27       11       46 1        
      28       12       13 1        
      29       13       14 2        
      30       13       15 1        
      31       15       19 2        
      32       15       16 1        
      33       16       17 2        
      34       16       47 1        
      35       17       18 1        
      36       17       48 1        
      37       18       19 1        
      38       19       20 1        
      39       20       21 am       
      40       20       49 1        
      41       21       22 2        
      42       21       23 1        
      43       23       28 ar       
      44       23       24 ar       
      45       24       25 ar       
      46       24       50 1        
      47       25       26 ar       
      48       25       51 1        
      49       26       27 ar       
      50       26       29 1        
      51       27       28 ar       
      52       27       52 1        
      53       28       53 1        
      54       29       30 1        
      55       29       54 1        
      56       29       55 1        
      57       30       56 1        
      58       30       57 1        
      59       30       58 1        

