#        1GCZ_R01_S0001_C0000_L00001_S0001_C0003_G0010_E0001.mol2
#        Tue Jun  6 09:54:29 2017
#        Descriptor:     14    25    25     8     8     6
#        Energy - RMSD - RMSD MassCentre:     -86.5701    999.9999    999.9999
#        Receptor:       1  Surface Point:     1  Conformer:     0
#        Ligand:         1  Surface Point:     1  Conformer:     3
#        BUDE Formal Charge: 0
#        ATOM Count: 27
#        Heavy ATOM Count: 17
@<TRIPOS>MOLECULE
pdb1gcz_ligA.pdb_1GCZ_R01_S0001_C0000_L00001_S0001_C0003_G0010_E0001
27 28 1 0 0
SMALL
GASTEIGER
@<TRIPOS>ATOM
       1 C3        -0.5961    0.8033    4.9297 C.3       1 YZ9900      0.0513 
       2 C11       -1.4573   -0.2976    4.3174 C.3       1 YZ9900      0.2089 
       3 O1        -1.5932    1.5791    2.4812 O.2       1 YZ9900     -0.2447 
       4 O2        -1.0645   -0.5086    2.9586 O.3       1 YZ9900     -0.4453 
       5 C6        -0.5826    2.2172   -2.5250 C.ar      1 YZ9900      0.0063 
       6 C5        -0.8836    1.3669   -0.1897 C.ar      1 YZ9900      0.0160 
       7 C4         0.3811   -0.2634   -3.3494 C.ar      1 YZ9900      0.0796 
       8 O3         0.1120   -1.1352   -1.1185 O.2       1 YZ9900     -0.4208 
       9 C2        -0.4831    1.1716   -1.6010 C.ar      1 YZ9900      0.0353 
      10 C1         0.0012   -0.0749   -2.0151 C.ar      1 YZ9900      0.1519 
      11 C7        -0.2663   -0.9465    0.2088 C.ar      1 YZ9900      0.3521 
      12 C12       -1.1764    0.5264    2.0991 C.2       1 YZ9900      0.3476 
      13 O4         0.6675    0.5468   -5.5730 O.3       1 YZ9900     -0.2865 
      14 O5        -0.1614   -1.8880    0.9775 O.2       1 YZ9900     -0.2442 
      15 C10       -0.2013    2.0231   -3.8581 C.ar      1 YZ9900      0.0422 
      16 C9        -0.7825    0.3571    0.6826 C.ar      1 YZ9900      0.1515 
      17 C8         0.2837    0.7791   -4.2785 C.ar      1 YZ9900      0.1988 
      18 H31       -0.7406    1.7274    4.3736 H         1 YZ9900      0.0000 
      19 H32       -0.8859    0.9546    5.9674 H         1 YZ9900      0.0000 
      20 H33        0.4510    0.5115    4.8838 H         1 YZ9900      0.0000 
      21 H112      -2.5035   -0.0009    4.3498 H         1 YZ9900      0.0000 
      22 H113      -1.3233   -1.2190    4.8802 H         1 YZ9900      0.0000 
      23 H6        -0.9553    3.1815   -2.2128 H         1 YZ9900      0.0000 
      24 H5        -1.2560    2.3323    0.1199 H         1 YZ9900      0.0000 
      25 H4         0.7541   -1.2269   -3.6642 H         1 YZ9900      0.0000 
      26 HO4        0.9926   -0.3607   -5.6813 H         1 YZ9900      0.0000 
      27 H10       -0.2880    2.8466   -4.5515 H         1 YZ9900      0.0000 
@<TRIPOS>BOND
       1       13       17 1        
       2        7       17 ar       
       3        7       10 ar       
       4        8       10 ar       
       5        8       11 ar       
       6       14       11 2        
       7       17       15 ar       
       8       10        9 ar       
       9       11       16 ar       
      10        2        4 1        
      11        2        1 1        
      12       15        5 ar       
      13        9        5 ar       
      14        9        6 ar       
      15       16        6 ar       
      16       16       12 1        
      17        4       12 1        
      18       12        3 2        
      19       18        1 1        
      20       19        1 1        
      21       20        1 1        
      22       21        2 1        
      23       22        2 1        
      24       23        5 1        
      25       24        6 1        
      26       25        7 1        
      27       26       13 1        
      28       27       15 1        
@<TRIPOS>SUBSTRUCTURE
 1 YZ9900 10 RESIDUE 4 A YZ9900 0 ROOT

