#        1GCZ_R01_S0001_C0000_L00011_S0001_C0007_G0010_E0001.mol2
#        Tue Jun  6 09:57:58 2017
#        Descriptor:      2    30    31     9    10    13
#        Energy - RMSD - RMSD MassCentre:     -74.4260    999.9999    999.9999
#        Receptor:       1  Surface Point:     1  Conformer:     0
#        Ligand:        11  Surface Point:     1  Conformer:     7
#        BUDE Formal Charge: 0
#        ATOM Count: 47
#        Heavy ATOM Count: 28
@<TRIPOS>MOLECULE
ZINC61303593_1GCZ_R01_S0001_C0000_L00011_S0001_C0007_G0010_E0001
 47 48 0 0 0
SMALL
USER_CHARGES
@<TRIPOS>ATOM
       1 C1        -0.4403    3.9780   10.2245 C.3       1 <0>         0.0220 
       2 O1         0.7011    3.1778    9.9055 O.3       1 <0>        -0.3006 
       3 C2         1.9219    3.7961    9.8424 C.ar      1 <0>         0.1008 
       4 C3         2.3387    4.7811   10.7457 C.ar      1 <0>        -0.1273 
       5 C4         3.6007    5.3754   10.6267 C.ar      1 <0>        -0.0284 
       6 C5         4.4548    4.9828    9.5965 C.ar      1 <0>        -0.0603 
       7 C6         4.0417    3.9981    8.6912 C.ar      1 <0>        -0.1775 
       8 C7         2.7801    3.4027    8.8087 C.ar      1 <0>         0.1359 
       9 O2         2.3173    2.4351    7.9564 O.3       1 <0>        -0.2949 
      10 C8         2.5527    2.6059    6.5564 C.3       1 <0>         0.0554 
      11 C9         1.9592    1.4228    5.7929 C.3       1 <0>        -0.1108 
      12 C10        0.4521    1.3642    6.0377 C.3       1 <0>        -0.1085 
      13 C11       -0.1343    0.1950    5.2831 C.2       1 <0>         0.4668 
      14 O3        -0.6891   -0.6820    5.8759 O.2       1 <0>        -0.4984 
      15 O4        -0.0319    0.1404    3.9382 O.3       1 <0>        -0.3293 
      16 C12       -0.6026   -0.9862    3.2673 C.3       1 <0>         0.0498 
      17 C13       -0.3790   -0.8515    1.7800 C.2       1 <0>         0.5168 
      18 O5         0.1240   -1.7781    1.1465 O.2       1 <0>        -0.4913 
      19 N1        -0.7261    0.2698    1.1547 N.am      1 <0>        -0.6701 
      20 C14       -0.5172    0.3976   -0.2389 C.ar      1 <0>         0.1579 
      21 C15        0.0536   -0.6578   -0.9602 C.ar      1 <0>        -0.1362 
      22 C16        0.2649   -0.5288   -2.3382 C.ar      1 <0>        -0.0710 
      23 C17       -0.1010    0.6504   -2.9952 C.ar      1 <0>        -0.1038 
      24 C18       -0.6738    1.7048   -2.2741 C.ar      1 <0>        -0.0707 
      25 C19       -0.8831    1.5786   -0.8956 C.ar      1 <0>        -0.1148 
      26 Br1        0.1859    0.8244   -4.8653 Br        1 <0>        -0.0469 
      27 C20        4.0219    6.3948   11.5680 C.1       1 <0>         0.2541 
      28 N2         4.3594    7.2103   12.3207 N.1       1 <0>        -0.4124 
      29 H1        -0.5641    4.7499    9.4679 H         1 <0>         0.1051 
      30 H2        -1.3276    3.3489   10.2504 H         1 <0>         0.0578 
      31 H3        -0.2961    4.4427   11.1976 H         1 <0>         0.0579 
      32 H4         1.7237    5.1273   11.5632 H         1 <0>         0.1456 
      33 H5         5.4288    5.4396    9.5025 H         1 <0>         0.1399 
      34 H6         4.7466    3.7367    7.9159 H         1 <0>         0.1478 
      35 H7         2.0826    3.5272    6.2187 H         1 <0>         0.0709 
      36 H8         3.6237    2.6555    6.3714 H         1 <0>         0.0709 
      37 H9         2.1485    1.5454    4.7286 H         1 <0>         0.0878 
      38 H10        2.4184    0.4995    6.1396 H         1 <0>         0.0877 
      39 H11        0.2614    1.2409    7.1016 H         1 <0>         0.1149 
      40 H12       -0.0084    2.2867    5.6906 H         1 <0>         0.1150 
      41 H13       -1.6706   -1.0273    3.4705 H         1 <0>         0.1060 
      42 H14       -0.1296   -1.8989    3.6233 H         1 <0>         0.1063 
      43 H15       -1.1390    1.0307    1.6749 H         1 <0>         0.4168 
      44 H16        0.3275   -1.5697   -0.4505 H         1 <0>         0.1372 
      45 H17        0.7044   -1.3416   -2.8970 H         1 <0>         0.1390 
      46 H18       -0.9541    2.6149   -2.7836 H         1 <0>         0.1383 
      47 H19       -1.3278    2.3880   -0.3358 H         1 <0>         0.1486 
@<TRIPOS>BOND
       1        1        2 1        
       2        1       29 1        
       3        1       30 1        
       4        1       31 1        
       5        2        3 1        
       6        3        8 ar       
       7        3        4 ar       
       8        4        5 ar       
       9        4       32 1        
      10        5        6 ar       
      11        5       27 1        
      12        6        7 ar       
      13        6       33 1        
      14        7        8 ar       
      15        7       34 1        
      16        8        9 1        
      17        9       10 1        
      18       10       11 1        
      19       10       35 1        
      20       10       36 1        
      21       11       12 1        
      22       11       37 1        
      23       11       38 1        
      24       12       13 1        
      25       12       39 1        
      26       12       40 1        
      27       13       14 2        
      28       13       15 1        
      29       15       16 1        
      30       16       17 1        
      31       16       41 1        
      32       16       42 1        
      33       17       18 2        
      34       17       19 am       
      35       19       20 1        
      36       19       43 1        
      37       20       25 ar       
      38       20       21 ar       
      39       21       22 ar       
      40       21       44 1        
      41       22       23 ar       
      42       22       45 1        
      43       23       24 ar       
      44       23       26 1        
      45       24       25 ar       
      46       24       46 1        
      47       25       47 1        
      48       27       28 3        

