#        1GCZ_R01_S0001_C0000_L00011_S0001_C0008_G0010_E0001.mol2
#        Tue Jun  6 09:57:59 2017
#        Descriptor:     35    30    29     8    10    13
#        Energy - RMSD - RMSD MassCentre:     -75.6825    999.9999    999.9999
#        Receptor:       1  Surface Point:     1  Conformer:     0
#        Ligand:        11  Surface Point:     1  Conformer:     8
#        BUDE Formal Charge: 0
#        ATOM Count: 47
#        Heavy ATOM Count: 28
@<TRIPOS>MOLECULE
ZINC61303593_1GCZ_R01_S0001_C0000_L00011_S0001_C0008_G0010_E0001
 47 48 0 0 0
SMALL
USER_CHARGES
@<TRIPOS>ATOM
       1 C1         0.4058    1.7979   11.0215 C.3       1 <0>         0.0220 
       2 O1         0.3651    2.1010    9.6246 O.3       1 <0>        -0.3006 
       3 C2         0.4624    3.4150    9.2492 C.ar      1 <0>         0.1008 
       4 C3         1.3329    4.3303    9.8526 C.ar      1 <0>        -0.1273 
       5 C4         1.3849    5.6614    9.4222 C.ar      1 <0>        -0.0284 
       6 C5         0.5598    6.0830    8.3795 C.ar      1 <0>        -0.0603 
       7 C6        -0.3121    5.1706    7.7736 C.ar      1 <0>        -0.1775 
       8 C7        -0.3653    3.8392    8.2029 C.ar      1 <0>         0.1359 
       9 O2        -1.1955    2.8988    7.6522 O.3       1 <0>        -0.2949 
      10 C8        -1.3228    2.8677    6.2282 C.3       1 <0>         0.0554 
      11 C9        -2.2886    1.7534    5.8281 C.3       1 <0>        -0.1108 
      12 C10       -1.7401    0.4095    6.3053 C.3       1 <0>        -0.1085 
      13 C11       -0.4017    0.1535    5.6545 C.2       1 <0>         0.4668 
      14 O3         0.5764    0.0238    6.3287 O.2       1 <0>        -0.4984 
      15 O4        -0.3101    0.0711    4.3101 O.3       1 <0>        -0.3293 
      16 C12        0.9782   -0.1726    3.7394 C.3       1 <0>         0.0498 
      17 C13        0.8590   -0.2278    2.2351 C.2       1 <0>         0.5168 
      18 O5         1.3209   -1.1846    1.6154 O.2       1 <0>        -0.4913 
      19 N1         0.2541    0.7589    1.5798 N.am      1 <0>        -0.6701 
      20 C14        0.1415    0.7086    0.1702 C.ar      1 <0>         0.1579 
      21 C15        0.6657   -0.3813   -0.5348 C.ar      1 <0>        -0.1362 
      22 C16        0.5587   -0.4279   -1.9300 C.ar      1 <0>        -0.0710 
      23 C17       -0.0781    0.6096   -2.6184 C.ar      1 <0>        -0.1038 
      24 C18       -0.6041    1.6984   -1.9130 C.ar      1 <0>        -0.0707 
      25 C19       -0.4955    1.7480   -0.5180 C.ar      1 <0>        -0.1148 
      26 Br1       -0.2230    0.5453   -4.5117 Br        1 <0>        -0.0469 
      27 C20        2.2905    6.6009   10.0543 C.1       1 <0>         0.2541 
      28 N2         3.0148    7.3529   10.5597 N.1       1 <0>        -0.4124 
      29 H1        -0.4267    2.2872   11.5227 H         1 <0>         0.1051 
      30 H2         0.3317    0.7213   11.1606 H         1 <0>         0.0578 
      31 H3         1.3436    2.1546   11.4422 H         1 <0>         0.0579 
      32 H4         1.9955    4.0650   10.6631 H         1 <0>         0.1456 
      33 H5         0.5979    7.1093    8.0455 H         1 <0>         0.1399 
      34 H6        -0.9251    5.5564    6.9725 H         1 <0>         0.1478 
      35 H7        -1.7067    3.8231    5.8768 H         1 <0>         0.0709 
      36 H8        -0.3489    2.6808    5.7804 H         1 <0>         0.0709 
      37 H9        -3.2590    1.9317    6.2867 H         1 <0>         0.0878 
      38 H10       -2.3960    1.7368    4.7457 H         1 <0>         0.0877 
      39 H11       -1.6191    0.4296    7.3862 H         1 <0>         0.1149 
      40 H12       -2.4331   -0.3835    6.0321 H         1 <0>         0.1150 
      41 H13        1.3650   -1.1207    4.1069 H         1 <0>         0.1060 
      42 H14        1.6573    0.6299    4.0195 H         1 <0>         0.1063 
      43 H15       -0.1252    1.5446    2.0886 H         1 <0>         0.4168 
      44 H16        1.1498   -1.1843    0.0012 H         1 <0>         0.1372 
      45 H17        0.9617   -1.2679   -2.4761 H         1 <0>         0.1390 
      46 H18       -1.0942    2.4991   -2.4470 H         1 <0>         0.1383 
      47 H19       -0.9028    2.5843    0.0306 H         1 <0>         0.1486 
@<TRIPOS>BOND
       1        1        2 1        
       2        1       29 1        
       3        1       30 1        
       4        1       31 1        
       5        2        3 1        
       6        3        8 ar       
       7        3        4 ar       
       8        4        5 ar       
       9        4       32 1        
      10        5        6 ar       
      11        5       27 1        
      12        6        7 ar       
      13        6       33 1        
      14        7        8 ar       
      15        7       34 1        
      16        8        9 1        
      17        9       10 1        
      18       10       11 1        
      19       10       35 1        
      20       10       36 1        
      21       11       12 1        
      22       11       37 1        
      23       11       38 1        
      24       12       13 1        
      25       12       39 1        
      26       12       40 1        
      27       13       14 2        
      28       13       15 1        
      29       15       16 1        
      30       16       17 1        
      31       16       41 1        
      32       16       42 1        
      33       17       18 2        
      34       17       19 am       
      35       19       20 1        
      36       19       43 1        
      37       20       25 ar       
      38       20       21 ar       
      39       21       22 ar       
      40       21       44 1        
      41       22       23 ar       
      42       22       45 1        
      43       23       24 ar       
      44       23       26 1        
      45       24       25 ar       
      46       24       46 1        
      47       25       47 1        
      48       27       28 3        

