#        1GCZ_R01_S0001_C0000_L00011_S0001_C0008_G0010_E0001.mol2
#        Tue Jun  6 14:11:32 2017
#        Descriptor:     25    20    11    12     8    14
#        Energy - RMSD - RMSD MassCentre:     -52.1912    999.9999    999.9999
#        Receptor:       1  Surface Point:     1  Conformer:     0
#        Ligand:        11  Surface Point:     1  Conformer:     8
#        BUDE Formal Charge: 0
#        ATOM Count: 47
#        Heavy ATOM Count: 28
@<TRIPOS>MOLECULE
ZINC61303593_1GCZ_R01_S0001_C0000_L00011_S0001_C0008_G0010_E0001
 47 48 0 0 0
SMALL
USER_CHARGES
@<TRIPOS>ATOM
       1 C1        -0.5190    3.0854    8.5540 C.3       1 <0>         0.0220 
       2 O1         0.7064    2.5082    8.0957 O.3       1 <0>        -0.3006 
       3 C2         1.8800    3.0947    8.4900 C.ar      1 <0>         0.1008 
       4 C3         2.1043    3.5863    9.7814 C.ar      1 <0>        -0.1273 
       5 C4         3.3276    4.1758   10.1219 C.ar      1 <0>        -0.0284 
       6 C5         4.3367    4.2755    9.1641 C.ar      1 <0>        -0.0603 
       7 C6         4.1161    3.7850    7.8716 C.ar      1 <0>        -0.1775 
       8 C7         2.8934    3.1954    7.5295 C.ar      1 <0>         0.1359 
       9 O2         2.6155    2.6970    6.2840 O.3       1 <0>        -0.2949 
      10 C8         3.6289    1.9323    5.6260 C.3       1 <0>         0.0554 
      11 C9         3.1160    1.4760    4.2610 C.3       1 <0>        -0.1108 
      12 C10        1.8789    0.5993    4.4498 C.3       1 <0>        -0.1085 
      13 C11        2.2452   -0.6173    5.2660 C.2       1 <0>         0.4668 
      14 O3         1.7114   -0.8157    6.3167 O.2       1 <0>        -0.4984 
      15 O4         3.1760   -1.4813    4.8085 O.3       1 <0>        -0.3293 
      16 C12        3.4897   -2.6189    5.6162 C.3       1 <0>         0.0498 
      17 C13        4.5458   -3.4489    4.9264 C.2       1 <0>         0.5168 
      18 O5         4.3697   -4.6548    4.7598 O.2       1 <0>        -0.4913 
      19 N1         5.6672   -2.8757    4.4988 N.am      1 <0>        -0.6701 
      20 C14        6.6578   -3.6521    3.8522 C.ar      1 <0>         0.1579 
      21 C15        6.4564   -5.0243    3.6610 C.ar      1 <0>        -0.1362 
      22 C16        7.4393   -5.7930    3.0259 C.ar      1 <0>        -0.0710 
      23 C17        8.6178   -5.1894    2.5759 C.ar      1 <0>        -0.1038 
      24 C18        8.8180   -3.8169    2.7653 C.ar      1 <0>        -0.0707 
      25 C19        7.8375   -3.0472    3.4028 C.ar      1 <0>        -0.1148 
      26 Br1        9.9509   -6.2334    1.7139 Br        1 <0>        -0.0469 
      27 C20        3.5490    4.6816   11.4627 C.1       1 <0>         0.2541 
      28 N2         3.7267    5.0863   12.5351 N.1       1 <0>        -0.4124 
      29 H1        -0.5925    4.1103    8.1964 H         1 <0>         0.1051 
      30 H2        -1.3571    2.5063    8.1720 H         1 <0>         0.0578 
      31 H3        -0.5381    3.0779    9.6418 H         1 <0>         0.0579 
      32 H4         1.3634    3.5384   10.5657 H         1 <0>         0.1456 
      33 H5         5.2813    4.7298    9.4242 H         1 <0>         0.1399 
      34 H6         4.9346    3.8911    7.1750 H         1 <0>         0.1478 
      35 H7         4.5175    2.5455    5.4923 H         1 <0>         0.0709 
      36 H8         3.8761    1.0613    6.2294 H         1 <0>         0.0709 
      37 H9         2.8551    2.3458    3.6616 H         1 <0>         0.0878 
      38 H10        3.8906    0.9046    3.7540 H         1 <0>         0.0877 
      39 H11        1.1084    1.1651    4.9691 H         1 <0>         0.1149 
      40 H12        1.5052    0.2840    3.4779 H         1 <0>         0.1150 
      41 H13        2.5944   -3.2197    5.7609 H         1 <0>         0.1060 
      42 H14        3.8643   -2.2865    6.5821 H         1 <0>         0.1063 
      43 H15        5.8118   -1.8855    4.6357 H         1 <0>         0.4168 
      44 H16        5.5415   -5.4851    4.0030 H         1 <0>         0.1372 
      45 H17        7.2861   -6.8515    2.8766 H         1 <0>         0.1390 
      46 H18        9.7297   -3.3534    2.4181 H         1 <0>         0.1383 
      47 H19        7.9861   -1.9874    3.5480 H         1 <0>         0.1486 
@<TRIPOS>BOND
       1        1        2 1        
       2        1       29 1        
       3        1       30 1        
       4        1       31 1        
       5        2        3 1        
       6        3        8 ar       
       7        3        4 ar       
       8        4        5 ar       
       9        4       32 1        
      10        5        6 ar       
      11        5       27 1        
      12        6        7 ar       
      13        6       33 1        
      14        7        8 ar       
      15        7       34 1        
      16        8        9 1        
      17        9       10 1        
      18       10       11 1        
      19       10       35 1        
      20       10       36 1        
      21       11       12 1        
      22       11       37 1        
      23       11       38 1        
      24       12       13 1        
      25       12       39 1        
      26       12       40 1        
      27       13       14 2        
      28       13       15 1        
      29       15       16 1        
      30       16       17 1        
      31       16       41 1        
      32       16       42 1        
      33       17       18 2        
      34       17       19 am       
      35       19       20 1        
      36       19       43 1        
      37       20       25 ar       
      38       20       21 ar       
      39       21       22 ar       
      40       21       44 1        
      41       22       23 ar       
      42       22       45 1        
      43       23       24 ar       
      44       23       26 1        
      45       24       25 ar       
      46       24       46 1        
      47       25       47 1        
      48       27       28 3        

