#        1GCZ_R01_S0001_C0000_L00011_S0001_C0009_G0010_E0001.mol2
#        Tue Jun  6 09:57:59 2017
#        Descriptor:     25    14    14    10     5    14
#        Energy - RMSD - RMSD MassCentre:     -69.3873    999.9999    999.9999
#        Receptor:       1  Surface Point:     1  Conformer:     0
#        Ligand:        11  Surface Point:     1  Conformer:     9
#        BUDE Formal Charge: 0
#        ATOM Count: 47
#        Heavy ATOM Count: 28
@<TRIPOS>MOLECULE
ZINC61303593_1GCZ_R01_S0001_C0000_L00011_S0001_C0009_G0010_E0001
 47 48 0 0 0
SMALL
USER_CHARGES
@<TRIPOS>ATOM
       1 C1         2.7400   -0.7602    4.6801 C.3       1 <0>         0.0220 
       2 O1         1.5313   -0.0008    4.7653 O.3       1 <0>        -0.3006 
       3 C2         0.5544   -0.2413    3.8355 C.ar      1 <0>         0.1008 
       4 C3         0.8153   -0.4647    2.4784 C.ar      1 <0>        -0.1273 
       5 C4        -0.2290   -0.7051    1.5775 C.ar      1 <0>        -0.0284 
       6 C5        -1.5463   -0.7227    2.0357 C.ar      1 <0>        -0.0603 
       7 C6        -1.8112   -0.4997    3.3920 C.ar      1 <0>        -0.1775 
       8 C7        -0.7681   -0.2592    4.2942 C.ar      1 <0>         0.1359 
       9 O2        -0.9608   -0.0342    5.6318 O.3       1 <0>        -0.2949 
      10 C8        -1.9071   -0.8558    6.3206 C.3       1 <0>         0.0554 
      11 C9        -1.4677   -2.3169    6.2371 C.3       1 <0>        -0.1108 
      12 C10       -0.1001   -2.4751    6.8999 C.3       1 <0>        -0.1085 
      13 C11        0.3342   -3.9191    6.8174 C.2       1 <0>         0.4668 
      14 O3        -0.3707   -4.7266    6.2889 O.2       1 <0>        -0.4984 
      15 O4         1.5194   -4.2980    7.3409 O.3       1 <0>        -0.3293 
      16 C12        1.8879   -5.6759    7.2388 C.3       1 <0>         0.0498 
      17 C13        3.2380   -5.8839    7.8822 C.2       1 <0>         0.5168 
      18 O5         3.3881   -6.7642    8.7280 O.2       1 <0>        -0.4913 
      19 N1         4.2656   -5.1147    7.5340 N.am      1 <0>        -0.6701 
      20 C14        5.5314   -5.3084    8.1360 C.ar      1 <0>         0.1579 
      21 C15        5.7025   -6.3115    9.0974 C.ar      1 <0>        -0.1362 
      22 C16        6.9539   -6.4992    9.6965 C.ar      1 <0>        -0.0710 
      23 C17        8.0342   -5.6904    9.3294 C.ar      1 <0>        -0.1038 
      24 C18        7.8635   -4.6888    8.3664 C.ar      1 <0>        -0.0707 
      25 C19        6.6120   -4.4979    7.7684 C.ar      1 <0>        -0.1148 
      26 Br1        9.7321   -5.9460   10.1429 Br        1 <0>        -0.0469 
      27 C20        0.0529   -0.9352    0.1738 C.1       1 <0>         0.2541 
      28 N2         0.2778   -1.1193   -0.9491 N.1       1 <0>        -0.4124 
      29 H1         3.2209   -0.5689    3.7231 H         1 <0>         0.1051 
      30 H2         3.4084   -0.4686    5.4874 H         1 <0>         0.0578 
      31 H3         2.5085   -1.8199    4.7649 H         1 <0>         0.0579 
      32 H4         1.8124   -0.4636    2.0633 H         1 <0>         0.1456 
      33 H5        -2.3537   -0.9079    1.3428 H         1 <0>         0.1399 
      34 H6        -2.8501   -0.5257    3.6858 H         1 <0>         0.1478 
      35 H7        -1.9596   -0.5526    7.3642 H         1 <0>         0.0709 
      36 H8        -2.8868   -0.7455    5.8606 H         1 <0>         0.0709 
      37 H9        -2.1934   -2.9444    6.7502 H         1 <0>         0.0878 
      38 H10       -1.4012   -2.6171    5.1936 H         1 <0>         0.0877 
      39 H11        0.6268   -1.8487    6.3873 H         1 <0>         0.1149 
      40 H12       -0.1655   -2.1759    7.9438 H         1 <0>         0.1150 
      41 H13        1.9387   -5.9616    6.1902 H         1 <0>         0.1060 
      42 H14        1.1465   -6.2889    7.7468 H         1 <0>         0.1063 
      43 H15        4.1424   -4.3919    6.8395 H         1 <0>         0.4168 
      44 H16        4.8677   -6.9391    9.3724 H         1 <0>         0.1372 
      45 H17        7.0887   -7.2727   10.4379 H         1 <0>         0.1390 
      46 H18        8.6989   -4.0646    8.0857 H         1 <0>         0.1383 
      47 H19        6.4765   -3.7287    7.0226 H         1 <0>         0.1486 
@<TRIPOS>BOND
       1        1        2 1        
       2        1       29 1        
       3        1       30 1        
       4        1       31 1        
       5        2        3 1        
       6        3        8 ar       
       7        3        4 ar       
       8        4        5 ar       
       9        4       32 1        
      10        5        6 ar       
      11        5       27 1        
      12        6        7 ar       
      13        6       33 1        
      14        7        8 ar       
      15        7       34 1        
      16        8        9 1        
      17        9       10 1        
      18       10       11 1        
      19       10       35 1        
      20       10       36 1        
      21       11       12 1        
      22       11       37 1        
      23       11       38 1        
      24       12       13 1        
      25       12       39 1        
      26       12       40 1        
      27       13       14 2        
      28       13       15 1        
      29       15       16 1        
      30       16       17 1        
      31       16       41 1        
      32       16       42 1        
      33       17       18 2        
      34       17       19 am       
      35       19       20 1        
      36       19       43 1        
      37       20       25 ar       
      38       20       21 ar       
      39       21       22 ar       
      40       21       44 1        
      41       22       23 ar       
      42       22       45 1        
      43       23       24 ar       
      44       23       26 1        
      45       24       25 ar       
      46       24       46 1        
      47       25       47 1        
      48       27       28 3        

