#        1GCZ_R01_S0001_C0000_L00011_S0001_C0010_G0010_E0001.mol2
#        Tue Jun  6 09:58:00 2017
#        Descriptor:     28    22    18    11     3    14
#        Energy - RMSD - RMSD MassCentre:     -63.7565    999.9999    999.9999
#        Receptor:       1  Surface Point:     1  Conformer:     0
#        Ligand:        11  Surface Point:     1  Conformer:    10
#        BUDE Formal Charge: 0
#        ATOM Count: 47
#        Heavy ATOM Count: 28
@<TRIPOS>MOLECULE
ZINC61303593_1GCZ_R01_S0001_C0000_L00011_S0001_C0010_G0010_E0001
 47 48 0 0 0
SMALL
USER_CHARGES
@<TRIPOS>ATOM
       1 C1         1.8779   -2.7637    7.0230 C.3       1 <0>         0.0220 
       2 O1         0.4952   -3.1250    6.9750 O.3       1 <0>        -0.3006 
       3 C2        -0.0111   -3.8674    8.0090 C.ar      1 <0>         0.1008 
       4 C3         0.3204   -3.6520    9.3520 C.ar      1 <0>        -0.1273 
       5 C4        -0.2323   -4.4466   10.3634 C.ar      1 <0>        -0.0284 
       6 C5        -1.1243   -5.4660   10.0312 C.ar      1 <0>        -0.0603 
       7 C6        -1.4583   -5.6846    8.6894 C.ar      1 <0>        -0.1775 
       8 C7        -0.9065   -4.8909    7.6768 C.ar      1 <0>         0.1359 
       9 O2        -1.1924   -5.0537    6.3468 O.3       1 <0>        -0.2949 
      10 C8        -1.2447   -6.3862    5.8303 C.3       1 <0>         0.0554 
      11 C9         0.1159   -7.0568    6.0148 C.3       1 <0>        -0.1108 
      12 C10        1.1784   -6.2703    5.2486 C.3       1 <0>        -0.1085 
      13 C11        2.5230   -6.9330    5.4309 C.2       1 <0>         0.4668 
      14 O3         2.6179   -7.9205    6.0974 O.2       1 <0>        -0.4984 
      15 O4         3.6186   -6.4098    4.8407 O.3       1 <0>        -0.3293 
      16 C12        4.8698   -7.0721    5.0421 C.3       1 <0>         0.0498 
      17 C13        5.9562   -6.3295    4.3014 C.2       1 <0>         0.5168 
      18 O5         6.7035   -6.9352    3.5349 O.2       1 <0>        -0.4913 
      19 N1         6.1050   -5.0197    4.4780 N.am      1 <0>        -0.6701 
      20 C14        7.1225   -4.3225    3.7847 C.ar      1 <0>         0.1579 
      21 C15        7.9719   -5.0116    2.9110 C.ar      1 <0>        -0.1362 
      22 C16        8.9819   -4.3221    2.2293 C.ar      1 <0>        -0.0710 
      23 C17        9.1373   -2.9447    2.4150 C.ar      1 <0>        -0.1038 
      24 C18        8.2865   -2.2554    3.2871 C.ar      1 <0>        -0.0707 
      25 C19        7.2778   -2.9438    3.9718 C.ar      1 <0>        -0.1148 
      26 Br1       10.5081   -2.0099    1.4892 Br        1 <0>        -0.0469 
      27 C20        0.1183   -4.2144   11.7512 C.1       1 <0>         0.2541 
      28 N2         0.3983   -4.0292   12.8615 N.1       1 <0>        -0.4124 
      29 H1         2.4874   -3.6648    7.0361 H         1 <0>         0.1051 
      30 H2         2.1273   -2.1690    6.1467 H         1 <0>         0.0578 
      31 H3         2.0692   -2.1825    7.9227 H         1 <0>         0.0579 
      32 H4         1.0040   -2.8796    9.6722 H         1 <0>         0.1456 
      33 H5        -1.5521   -6.0805   10.8095 H         1 <0>         0.1399 
      34 H6        -2.1536   -6.4879    8.4956 H         1 <0>         0.1478 
      35 H7        -2.0035   -6.9536    6.3649 H         1 <0>         0.0709 
      36 H8        -1.4926   -6.3558    4.7714 H         1 <0>         0.0709 
      37 H9         0.3714   -7.0751    7.0721 H         1 <0>         0.0878 
      38 H10        0.0738   -8.0748    5.6335 H         1 <0>         0.0877 
      39 H11        0.9244   -6.2519    4.1909 H         1 <0>         0.1149 
      40 H12        1.2221   -5.2522    5.6295 H         1 <0>         0.1150 
      41 H13        4.8064   -8.0908    4.6657 H         1 <0>         0.1060 
      42 H14        5.1039   -7.0911    6.1044 H         1 <0>         0.1063 
      43 H15        5.4913   -4.5224    5.1075 H         1 <0>         0.4168 
      44 H16        7.8436   -6.0739    2.7644 H         1 <0>         0.1372 
      45 H17        9.6380   -4.8513    1.5543 H         1 <0>         0.1390 
      46 H18        8.4095   -1.1920    3.4298 H         1 <0>         0.1383 
      47 H19        6.6169   -2.4156    4.6429 H         1 <0>         0.1486 
@<TRIPOS>BOND
       1        1        2 1        
       2        1       29 1        
       3        1       30 1        
       4        1       31 1        
       5        2        3 1        
       6        3        8 ar       
       7        3        4 ar       
       8        4        5 ar       
       9        4       32 1        
      10        5        6 ar       
      11        5       27 1        
      12        6        7 ar       
      13        6       33 1        
      14        7        8 ar       
      15        7       34 1        
      16        8        9 1        
      17        9       10 1        
      18       10       11 1        
      19       10       35 1        
      20       10       36 1        
      21       11       12 1        
      22       11       37 1        
      23       11       38 1        
      24       12       13 1        
      25       12       39 1        
      26       12       40 1        
      27       13       14 2        
      28       13       15 1        
      29       15       16 1        
      30       16       17 1        
      31       16       41 1        
      32       16       42 1        
      33       17       18 2        
      34       17       19 am       
      35       19       20 1        
      36       19       43 1        
      37       20       25 ar       
      38       20       21 ar       
      39       21       22 ar       
      40       21       44 1        
      41       22       23 ar       
      42       22       45 1        
      43       23       24 ar       
      44       23       26 1        
      45       24       25 ar       
      46       24       46 1        
      47       25       47 1        
      48       27       28 3        

