#        1GCZ_R01_S0001_C0000_L00011_S0001_C0010_G0010_E0001.mol2
#        Tue Jun  6 14:11:36 2017
#        Descriptor:      6    14     7     8     4    15
#        Energy - RMSD - RMSD MassCentre:     -67.6900    999.9999    999.9999
#        Receptor:       1  Surface Point:     1  Conformer:     0
#        Ligand:        11  Surface Point:     1  Conformer:    10
#        BUDE Formal Charge: 0
#        ATOM Count: 47
#        Heavy ATOM Count: 28
@<TRIPOS>MOLECULE
ZINC61303593_1GCZ_R01_S0001_C0000_L00011_S0001_C0010_G0010_E0001
 47 48 0 0 0
SMALL
USER_CHARGES
@<TRIPOS>ATOM
       1 C1        -0.9445   -1.4689    7.0894 C.3       1 <0>         0.0220 
       2 O1         0.2489   -0.7388    6.7935 O.3       1 <0>        -0.3006 
       3 C2         0.5937   -0.5773    5.4776 C.ar      1 <0>         0.1008 
       4 C3        -0.3305   -0.3001    4.4633 C.ar      1 <0>        -0.1273 
       5 C4         0.0864   -0.1460    3.1358 C.ar      1 <0>        -0.0284 
       6 C5         1.4387   -0.2696    2.8177 C.ar      1 <0>        -0.0603 
       7 C6         2.3660   -0.5467    3.8291 C.ar      1 <0>        -0.1775 
       8 C7         1.9508   -0.7011    5.1571 C.ar      1 <0>         0.1359 
       9 O2         2.8073   -0.9727    6.1914 O.3       1 <0>        -0.2949 
      10 C8         3.8333   -1.9451    5.9749 C.3       1 <0>         0.0554 
      11 C9         3.1945   -3.2927    5.6422 C.3       1 <0>        -0.1108 
      12 C10        2.3230   -3.7451    6.8129 C.3       1 <0>        -0.1085 
      13 C11        1.6918   -5.0769    6.4842 C.2       1 <0>         0.4668 
      14 O3         1.9148   -5.6018    5.4339 O.2       1 <0>        -0.4984 
      15 O4         0.8750   -5.6751    7.3772 O.3       1 <0>        -0.3293 
      16 C12        0.3006   -6.9354    7.0215 C.3       1 <0>         0.0498 
      17 C13       -0.5729   -7.4261    8.1513 C.2       1 <0>         0.5168 
      18 O5        -0.4191   -8.5608    8.6004 O.2       1 <0>        -0.4913 
      19 N1        -1.5092   -6.6308    8.6610 N.am      1 <0>        -0.6701 
      20 C14       -2.3285   -7.0892    9.7197 C.ar      1 <0>         0.1579 
      21 C15       -2.1522   -8.3800   10.2320 C.ar      1 <0>        -0.1362 
      22 C16       -2.9667   -8.8349   11.2760 C.ar      1 <0>        -0.0710 
      23 C17       -3.9505   -7.9978   11.8119 C.ar      1 <0>        -0.1038 
      24 C18       -4.1253   -6.7063   11.3009 C.ar      1 <0>        -0.0707 
      25 C19       -3.3135   -6.2508   10.2550 C.ar      1 <0>        -0.1148 
      26 Br1       -5.0552   -8.6159   13.2288 Br        1 <0>        -0.0469 
      27 C20       -0.8798    0.1409    2.0933 C.1       1 <0>         0.2541 
      28 N2        -1.6522    0.3704    1.2589 N.1       1 <0>        -0.4124 
      29 H1        -0.8537   -2.4825    6.7046 H         1 <0>         0.1051 
      30 H2        -1.0914   -1.5011    8.1669 H         1 <0>         0.0578 
      31 H3        -1.7950   -0.9773    6.6214 H         1 <0>         0.0579 
      32 H4        -1.3895   -0.1929    4.6461 H         1 <0>         0.1456 
      33 H5         1.7630   -0.1512    1.7943 H         1 <0>         0.1399 
      34 H6         3.3976   -0.6307    3.5207 H         1 <0>         0.1478 
      35 H7         4.4643   -1.6293    5.1469 H         1 <0>         0.0709 
      36 H8         4.4368   -2.0428    6.8748 H         1 <0>         0.0709 
      37 H9         2.5794   -3.1929    4.7504 H         1 <0>         0.0878 
      38 H10        3.9742   -4.0304    5.4650 H         1 <0>         0.0877 
      39 H11        2.9372   -3.8460    7.7052 H         1 <0>         0.1149 
      40 H12        1.5423   -3.0085    6.9907 H         1 <0>         0.1150 
      41 H13        1.0935   -7.6570    6.8373 H         1 <0>         0.1060 
      42 H14       -0.3013   -6.8195    6.1227 H         1 <0>         0.1063 
      43 H15       -1.6355   -5.6991    8.2922 H         1 <0>         0.4168 
      44 H16       -1.3860   -9.0206    9.8206 H         1 <0>         0.1372 
      45 H17       -2.8323   -9.8300   11.6733 H         1 <0>         0.1390 
      46 H18       -4.8867   -6.0623   11.7156 H         1 <0>         0.1383 
      47 H19       -3.4424   -5.2540    9.8600 H         1 <0>         0.1486 
@<TRIPOS>BOND
       1        1        2 1        
       2        1       29 1        
       3        1       30 1        
       4        1       31 1        
       5        2        3 1        
       6        3        8 ar       
       7        3        4 ar       
       8        4        5 ar       
       9        4       32 1        
      10        5        6 ar       
      11        5       27 1        
      12        6        7 ar       
      13        6       33 1        
      14        7        8 ar       
      15        7       34 1        
      16        8        9 1        
      17        9       10 1        
      18       10       11 1        
      19       10       35 1        
      20       10       36 1        
      21       11       12 1        
      22       11       37 1        
      23       11       38 1        
      24       12       13 1        
      25       12       39 1        
      26       12       40 1        
      27       13       14 2        
      28       13       15 1        
      29       15       16 1        
      30       16       17 1        
      31       16       41 1        
      32       16       42 1        
      33       17       18 2        
      34       17       19 am       
      35       19       20 1        
      36       19       43 1        
      37       20       25 ar       
      38       20       21 ar       
      39       21       22 ar       
      40       21       44 1        
      41       22       23 ar       
      42       22       45 1        
      43       23       24 ar       
      44       23       26 1        
      45       24       25 ar       
      46       24       46 1        
      47       25       47 1        
      48       27       28 3        

