#        1GCZ_R01_S0001_C0000_L00011_S0001_C0011_G0010_E0001.mol2
#        Tue Jun  6 09:58:01 2017
#        Descriptor:      2    32    29     8     8    13
#        Energy - RMSD - RMSD MassCentre:     -74.2494    999.9999    999.9999
#        Receptor:       1  Surface Point:     1  Conformer:     0
#        Ligand:        11  Surface Point:     1  Conformer:    11
#        BUDE Formal Charge: 0
#        ATOM Count: 47
#        Heavy ATOM Count: 28
@<TRIPOS>MOLECULE
ZINC61303593_1GCZ_R01_S0001_C0000_L00011_S0001_C0011_G0010_E0001
 47 48 0 0 0
SMALL
USER_CHARGES
@<TRIPOS>ATOM
       1 C1         1.4386   -2.5731    5.2474 C.3       1 <0>         0.0220 
       2 O1         0.5596   -1.6654    5.9168 O.3       1 <0>        -0.3006 
       3 C2         0.4493   -1.7643    7.2787 C.ar      1 <0>         0.1008 
       4 C3         0.3962   -2.9834    7.9649 C.ar      1 <0>        -0.1273 
       5 C4         0.2831   -3.0169    9.3599 C.ar      1 <0>        -0.0284 
       6 C5         0.2224   -1.8221   10.0768 C.ar      1 <0>        -0.0603 
       7 C6         0.2753   -0.6009    9.3943 C.ar      1 <0>        -0.1775 
       8 C7         0.3883   -0.5657    7.9993 C.ar      1 <0>         0.1359 
       9 O2         0.4448    0.5949    7.2736 O.3       1 <0>        -0.2949 
      10 C8         1.2624    1.6577    7.7704 C.3       1 <0>         0.0554 
      11 C9         1.1828    2.8489    6.8167 C.3       1 <0>        -0.1108 
      12 C10       -0.2630    3.3356    6.7307 C.3       1 <0>        -0.1085 
      13 C11       -1.1364    2.2244    6.1991 C.2       1 <0>         0.4668 
      14 O3        -2.0335    1.7983    6.8639 O.2       1 <0>        -0.4984 
      15 O4        -0.9038    1.7118    4.9721 O.3       1 <0>        -0.3293 
      16 C12       -1.7571    0.6609    4.5114 C.3       1 <0>         0.0498 
      17 C13       -1.3277    0.2352    3.1277 C.2       1 <0>         0.5168 
      18 O5        -1.1193   -0.9525    2.8857 O.2       1 <0>        -0.4913 
      19 N1        -1.1749    1.1454    2.1700 N.am      1 <0>        -0.6701 
      20 C14       -0.7726    0.7482    0.8728 C.ar      1 <0>         0.1579 
      21 C15       -0.5371   -0.6040    0.5971 C.ar      1 <0>        -0.1362 
      22 C16       -0.1340   -0.9958   -0.6852 C.ar      1 <0>        -0.0710 
      23 C17        0.0258   -0.0383   -1.6919 C.ar      1 <0>        -0.1038 
      24 C18       -0.2119    1.3135   -1.4165 C.ar      1 <0>        -0.0707 
      25 C19       -0.6123    1.7074   -0.1341 C.ar      1 <0>        -0.1148 
      26 Br1        0.5726   -0.5710   -3.4318 Br        1 <0>        -0.0469 
      27 C20        0.2289   -4.2854   10.0600 C.1       1 <0>         0.2541 
      28 N2         0.1856   -5.3000   10.6208 N.1       1 <0>        -0.4124 
      29 H1         1.1053   -3.5941    5.4208 H         1 <0>         0.1051 
      30 H2         1.4298   -2.3644    4.1796 H         1 <0>         0.0578 
      31 H3         2.4485   -2.4500    5.6333 H         1 <0>         0.0579 
      32 H4         0.4385   -3.9407    7.4667 H         1 <0>         0.1456 
      33 H5         0.1352   -1.8451   11.1530 H         1 <0>         0.1399 
      34 H6         0.2240    0.2890   10.0041 H         1 <0>         0.1478 
      35 H7         0.9095    1.9578    8.7548 H         1 <0>         0.0709 
      36 H8         2.2940    1.3195    7.8420 H         1 <0>         0.0709 
      37 H9         1.8143    3.6537    7.1871 H         1 <0>         0.0878 
      38 H10        1.5222    2.5463    5.8284 H         1 <0>         0.0877 
      39 H11       -0.6083    3.6253    7.7209 H         1 <0>         0.1149 
      40 H12       -0.3190    4.1916    6.0617 H         1 <0>         0.1150 
      41 H13       -2.7850    1.0157    4.4783 H         1 <0>         0.1060 
      42 H14       -1.6871   -0.1873    5.1890 H         1 <0>         0.1063 
      43 H15       -1.3461    2.1207    2.3687 H         1 <0>         0.4168 
      44 H16       -0.6693   -1.3412    1.3752 H         1 <0>         0.1372 
      45 H17        0.0477   -2.0383   -0.9007 H         1 <0>         0.1390 
      46 H18       -0.0864    2.0512   -2.1953 H         1 <0>         0.1383 
      47 H19       -0.8001    2.7487    0.0821 H         1 <0>         0.1486 
@<TRIPOS>BOND
       1        1        2 1        
       2        1       29 1        
       3        1       30 1        
       4        1       31 1        
       5        2        3 1        
       6        3        8 ar       
       7        3        4 ar       
       8        4        5 ar       
       9        4       32 1        
      10        5        6 ar       
      11        5       27 1        
      12        6        7 ar       
      13        6       33 1        
      14        7        8 ar       
      15        7       34 1        
      16        8        9 1        
      17        9       10 1        
      18       10       11 1        
      19       10       35 1        
      20       10       36 1        
      21       11       12 1        
      22       11       37 1        
      23       11       38 1        
      24       12       13 1        
      25       12       39 1        
      26       12       40 1        
      27       13       14 2        
      28       13       15 1        
      29       15       16 1        
      30       16       17 1        
      31       16       41 1        
      32       16       42 1        
      33       17       18 2        
      34       17       19 am       
      35       19       20 1        
      36       19       43 1        
      37       20       25 ar       
      38       20       21 ar       
      39       21       22 ar       
      40       21       44 1        
      41       22       23 ar       
      42       22       45 1        
      43       23       24 ar       
      44       23       26 1        
      45       24       25 ar       
      46       24       46 1        
      47       25       47 1        
      48       27       28 3        

