#        1GCZ_R01_S0001_C0000_L00011_S0001_C0011_G0010_E0001.mol2
#        Tue Jun  6 14:11:38 2017
#        Descriptor:     32    18     2     9     5    15
#        Energy - RMSD - RMSD MassCentre:     -64.4257    999.9999    999.9999
#        Receptor:       1  Surface Point:     1  Conformer:     0
#        Ligand:        11  Surface Point:     1  Conformer:    11
#        BUDE Formal Charge: 0
#        ATOM Count: 47
#        Heavy ATOM Count: 28
@<TRIPOS>MOLECULE
ZINC61303593_1GCZ_R01_S0001_C0000_L00011_S0001_C0011_G0010_E0001
 47 48 0 0 0
SMALL
USER_CHARGES
@<TRIPOS>ATOM
       1 C1        -1.6361   -1.8099    6.3786 C.3       1 <0>         0.0220 
       2 O1        -0.2454   -1.7889    6.0465 O.3       1 <0>        -0.3006 
       3 C2         0.2414   -0.6906    5.3881 C.ar      1 <0>         0.1008 
       4 C3        -0.4462   -0.0370    4.3586 C.ar      1 <0>        -0.1273 
       5 C4         0.1066    1.0821    3.7246 C.ar      1 <0>        -0.0284 
       6 C5         1.3576    1.5533    4.1221 C.ar      1 <0>        -0.0603 
       7 C6         2.0484    0.9025    5.1512 C.ar      1 <0>        -0.1775 
       8 C7         1.4971   -0.2168    5.7862 C.ar      1 <0>         0.1359 
       9 O2         2.1215   -0.8971    6.7981 O.3       1 <0>        -0.2949 
      10 C8         2.7698   -0.1341    7.8191 C.3       1 <0>         0.0554 
      11 C9         3.3970   -1.0814    8.8409 C.3       1 <0>        -0.1108 
      12 C10        4.4348   -1.9625    8.1474 C.3       1 <0>        -0.1085 
      13 C11        3.7611   -2.7804    7.0715 C.2       1 <0>         0.4668 
      14 O3         4.0958   -2.6599    5.9305 O.2       1 <0>        -0.4984 
      15 O4         2.7801   -3.6482    7.3986 O.3       1 <0>        -0.3293 
      16 C12        2.1717   -4.4006    6.3457 C.3       1 <0>         0.0498 
      17 C13        1.1081   -5.3035    6.9233 C.2       1 <0>         0.5168 
      18 O5        -0.0281   -5.2964    6.4522 O.2       1 <0>        -0.4913 
      19 N1         1.4000   -6.1071    7.9422 N.am      1 <0>        -0.6701 
      20 C14        0.4044   -6.9537    8.4845 C.ar      1 <0>         0.1579 
      21 C15       -0.8882   -6.9468    7.9470 C.ar      1 <0>        -0.1362 
      22 C16       -1.8743   -7.7809    8.4875 C.ar      1 <0>        -0.0710 
      23 C17       -1.5663   -8.6260    9.5584 C.ar      1 <0>        -0.1038 
      24 C18       -0.2731   -8.6344   10.0943 C.ar      1 <0>        -0.0707 
      25 C19        0.7134   -7.7988    9.5569 C.ar      1 <0>        -0.1148 
      26 Br1       -2.9051   -9.7578   10.2910 Br        1 <0>        -0.0469 
      27 C20       -0.6147    1.7511    2.6595 C.1       1 <0>         0.2541 
      28 N2        -1.1912    2.2869    1.8072 N.1       1 <0>        -0.4124 
      29 H1        -2.2270   -1.7542    5.4667 H         1 <0>         0.1051 
      30 H2        -1.8684   -2.7327    6.9062 H         1 <0>         0.0578 
      31 H3        -1.8692   -0.9589    7.0152 H         1 <0>         0.0579 
      32 H4        -1.4169   -0.3535    4.0065 H         1 <0>         0.1456 
      33 H5         1.7864    2.4165    3.6347 H         1 <0>         0.1399 
      34 H6         3.0117    1.3141    5.4139 H         1 <0>         0.1478 
      35 H7         3.5468    0.4833    7.3732 H         1 <0>         0.0709 
      36 H8         2.0404    0.5024    8.3155 H         1 <0>         0.0709 
      37 H9         3.8799   -0.5019    9.6250 H         1 <0>         0.0878 
      38 H10        2.6229   -1.7090    9.2774 H         1 <0>         0.0877 
      39 H11        5.2021   -1.3354    7.6983 H         1 <0>         0.1149 
      40 H12        4.8910   -2.6289    8.8763 H         1 <0>         0.1150 
      41 H13        2.9272   -5.0042    5.8471 H         1 <0>         0.1060 
      42 H14        1.7184   -3.7203    5.6280 H         1 <0>         0.1063 
      43 H15        2.3330   -6.1129    8.3290 H         1 <0>         0.4168 
      44 H16       -1.1198   -6.2983    7.1150 H         1 <0>         0.1372 
      45 H17       -2.8720   -7.7779    8.0743 H         1 <0>         0.1390 
      46 H18       -0.0382   -9.2870   10.9222 H         1 <0>         0.1383 
      47 H19        1.7133   -7.8044    9.9648 H         1 <0>         0.1486 
@<TRIPOS>BOND
       1        1        2 1        
       2        1       29 1        
       3        1       30 1        
       4        1       31 1        
       5        2        3 1        
       6        3        8 ar       
       7        3        4 ar       
       8        4        5 ar       
       9        4       32 1        
      10        5        6 ar       
      11        5       27 1        
      12        6        7 ar       
      13        6       33 1        
      14        7        8 ar       
      15        7       34 1        
      16        8        9 1        
      17        9       10 1        
      18       10       11 1        
      19       10       35 1        
      20       10       36 1        
      21       11       12 1        
      22       11       37 1        
      23       11       38 1        
      24       12       13 1        
      25       12       39 1        
      26       12       40 1        
      27       13       14 2        
      28       13       15 1        
      29       15       16 1        
      30       16       17 1        
      31       16       41 1        
      32       16       42 1        
      33       17       18 2        
      34       17       19 am       
      35       19       20 1        
      36       19       43 1        
      37       20       25 ar       
      38       20       21 ar       
      39       21       22 ar       
      40       21       44 1        
      41       22       23 ar       
      42       22       45 1        
      43       23       24 ar       
      44       23       26 1        
      45       24       25 ar       
      46       24       46 1        
      47       25       47 1        
      48       27       28 3        

