#        1GCZ_R01_S0001_C0000_L00003_S0001_C0013_G0010_E0001.mol2
#        Tue Jun  6 09:54:46 2017
#        Descriptor:     16    14    19     9     7    12
#        Energy - RMSD - RMSD MassCentre:     -56.6616    999.9999    999.9999
#        Receptor:       1  Surface Point:     1  Conformer:     0
#        Ligand:         3  Surface Point:     1  Conformer:    13
#        BUDE Formal Charge: 0
#        ATOM Count: 58
#        Heavy ATOM Count: 30
@<TRIPOS>MOLECULE
ZINC61580633_1GCZ_R01_S0001_C0000_L00003_S0001_C0013_G0010_E0001
 58 59 0 0 0
SMALL
USER_CHARGES
@<TRIPOS>ATOM
       1 C1         1.6204   -0.2882   -3.0443 C.3       1 <0>        -0.1532 
       2 C2         0.3826   -0.4100   -2.1603 C.3       1 <0>        -0.1224 
       3 C3         0.5162    0.5329   -0.9655 C.3       1 <0>        -0.1198 
       4 C4        -0.7234    0.4109   -0.0803 C.3       1 <0>         0.0610 
       5 O1        -0.5982    1.2935    1.0379 O.3       1 <0>        -0.3878 
       6 C5        -1.7334    1.2223    1.9048 C.3       1 <0>         0.0487 
       7 C6        -1.5399    2.1846    3.0757 C.3       1 <0>         0.1244 
       8 N1        -0.5112    1.6528    3.9811 N.am      1 <0>        -0.7216 
       9 C7        -0.1760    2.3290    5.0763 C.2       1 <0>         0.5161 
      10 O2        -0.7261    3.3988    5.3321 O.2       1 <0>        -0.5151 
      11 C8         0.8808    1.7826    6.0064 C.3       1 <0>         0.0490 
      12 O3         0.3739    0.6243    6.6744 O.3       1 <0>        -0.3194 
      13 C9        -0.6916    0.7786    7.4889 C.2       1 <0>         0.5417 
      14 O4        -1.1924    1.8811    7.6373 O.2       1 <0>        -0.5337 
      15 C10       -1.2522   -0.3905    8.2023 C.2       1 <0>        -0.2559 
      16 C11       -2.4064   -0.3313    9.1270 C.2       1 <0>        -0.0791 
      17 C12       -2.7020   -1.5241    9.6485 C.2       1 <0>        -0.2585 
      18 S1        -1.6287   -2.8070    9.0702 S.3       1 <0>         0.3028 
      19 C13       -0.7511   -1.6276    8.0845 C.2       1 <0>         0.0893 
      20 N2         0.3279   -1.9048    7.2872 N.am      1 <0>        -0.6099 
      21 C14        0.7906   -3.1487    7.2016 C.2       1 <0>         0.5551 
      22 O5         0.2494   -4.0510    7.8387 O.2       1 <0>        -0.4939 
      23 C15        1.9564   -3.4464    6.3398 C.ar      1 <0>        -0.1466 
      24 C16        2.4122   -4.7689    6.2817 C.ar      1 <0>        -0.0772 
      25 C17        3.5544   -5.0995    5.5428 C.ar      1 <0>        -0.1241 
      26 C18        4.2685   -4.1108    4.8559 C.ar      1 <0>        -0.0446 
      27 C19        3.7849   -2.7971    4.8687 C.ar      1 <0>        -0.1261 
      28 C20        2.6258   -2.4759    5.5850 C.ar      1 <0>        -0.0460 
      29 C21        5.5328   -4.4772    4.1157 C.3       1 <0>        -0.0928 
      30 C22        6.7297   -4.3277    5.0504 C.3       1 <0>        -0.1485 
      31 H1         2.5027   -0.5673   -2.4721 H         1 <0>         0.0567 
      32 H2         1.7202    0.7393   -3.3877 H         1 <0>         0.0554 
      33 H3         1.5192   -0.9496   -3.9021 H         1 <0>         0.0557 
      34 H4        -0.5020   -0.1431   -2.7350 H         1 <0>         0.0632 
      35 H5         0.2893   -1.4341   -1.8047 H         1 <0>         0.0635 
      36 H6         1.3998    0.2667   -0.3896 H         1 <0>         0.0711 
      37 H7         0.6086    1.5575   -1.3198 H         1 <0>         0.0704 
      38 H8        -1.6079    0.6779   -0.6549 H         1 <0>         0.0498 
      39 H9        -0.8163   -0.6131    0.2754 H         1 <0>         0.0505 
      40 H10       -1.8383    0.2078    2.2836 H         1 <0>         0.0584 
      41 H11       -2.6296    1.4987    1.3534 H         1 <0>         0.0702 
      42 H12       -2.4778    2.2919    3.6166 H         1 <0>         0.0872 
      43 H13       -1.2243    3.1555    2.6997 H         1 <0>         0.0805 
      44 H14       -0.0588    0.7744    3.7721 H         1 <0>         0.4058 
      45 H15        1.7648    1.5120    5.4329 H         1 <0>         0.1008 
      46 H16        1.1430    2.5394    6.7427 H         1 <0>         0.0999 
      47 H17       -2.9423    0.5835    9.3324 H         1 <0>         0.1557 
      48 H18       -3.5198   -1.6752   10.3374 H         1 <0>         0.1929 
      49 H19        0.7724   -1.1639    6.7641 H         1 <0>         0.4317 
      50 H20        1.8814   -5.5434    6.8154 H         1 <0>         0.1287 
      51 H21        3.8930   -6.1241    5.5002 H         1 <0>         0.1326 
      52 H22        4.3161   -2.0367    4.3154 H         1 <0>         0.1342 
      53 H23        2.2677   -1.4597    5.5099 H         1 <0>         0.1410 
      54 H24        5.6554   -3.8169    3.2598 H         1 <0>         0.0777 
      55 H25        5.4659   -5.5076    3.7729 H         1 <0>         0.0771 
      56 H26        6.6119   -4.9977    5.8994 H         1 <0>         0.0623 
      57 H27        6.7871   -3.3002    5.4036 H         1 <0>         0.0572 
      58 H28        7.6419   -4.5788    4.5132 H         1 <0>         0.0578 
@<TRIPOS>BOND
       1        1        2 1        
       2        1       31 1        
       3        1       32 1        
       4        1       33 1        
       5        2        3 1        
       6        2       34 1        
       7        2       35 1        
       8        3        4 1        
       9        3       36 1        
      10        3       37 1        
      11        4        5 1        
      12        4       38 1        
      13        4       39 1        
      14        5        6 1        
      15        6        7 1        
      16        6       40 1        
      17        6       41 1        
      18        7        8 1        
      19        7       42 1        
      20        7       43 1        
      21        8        9 am       
      22        8       44 1        
      23        9       10 2        
      24        9       11 1        
      25       11       12 1        
      26       11       45 1        
      27       11       46 1        
      28       12       13 1        
      29       13       14 2        
      30       13       15 1        
      31       15       19 2        
      32       15       16 1        
      33       16       17 2        
      34       16       47 1        
      35       17       18 1        
      36       17       48 1        
      37       18       19 1        
      38       19       20 1        
      39       20       21 am       
      40       20       49 1        
      41       21       22 2        
      42       21       23 1        
      43       23       28 ar       
      44       23       24 ar       
      45       24       25 ar       
      46       24       50 1        
      47       25       26 ar       
      48       25       51 1        
      49       26       27 ar       
      50       26       29 1        
      51       27       28 ar       
      52       27       52 1        
      53       28       53 1        
      54       29       30 1        
      55       29       54 1        
      56       29       55 1        
      57       30       56 1        
      58       30       57 1        
      59       30       58 1        

