#        1GCZ_R01_S0001_C0000_L00011_S0001_C0012_G0010_E0001.mol2
#        Tue Jun  6 09:58:02 2017
#        Descriptor:     18    35     2     9     8    14
#        Energy - RMSD - RMSD MassCentre:     -72.0808    999.9999    999.9999
#        Receptor:       1  Surface Point:     1  Conformer:     0
#        Ligand:        11  Surface Point:     1  Conformer:    12
#        BUDE Formal Charge: 0
#        ATOM Count: 47
#        Heavy ATOM Count: 28
@<TRIPOS>MOLECULE
ZINC61303593_1GCZ_R01_S0001_C0000_L00011_S0001_C0012_G0010_E0001
 47 48 0 0 0
SMALL
USER_CHARGES
@<TRIPOS>ATOM
       1 C1         2.2334    1.6709    3.8931 C.3       1 <0>         0.0220 
       2 O1         1.2162    0.7019    4.1593 O.3       1 <0>        -0.3006 
       3 C2         0.1901    0.5836    3.2594 C.ar      1 <0>         0.1008 
       4 C3         0.3672    0.6362    1.8716 C.ar      1 <0>        -0.1273 
       5 C4        -0.7240    0.5086    1.0040 C.ar      1 <0>        -0.0284 
       6 C5        -2.0043    0.3267    1.5266 C.ar      1 <0>        -0.0603 
       7 C6        -2.1855    0.2735    2.9137 C.ar      1 <0>        -0.1775 
       8 C7        -1.0953    0.4009    3.7827 C.ar      1 <0>         0.1359 
       9 O2        -1.2061    0.3576    5.1475 O.3       1 <0>        -0.2949 
      10 C8        -2.2899    1.0652    5.7554 C.3       1 <0>         0.0554 
      11 C9        -2.2271    0.8865    7.2715 C.3       1 <0>        -0.1108 
      12 C10       -2.3509   -0.5973    7.6142 C.3       1 <0>        -0.1085 
      13 C11       -1.2067   -1.3555    6.9847 C.2       1 <0>         0.4668 
      14 O3        -1.4273   -2.2172    6.1865 O.2       1 <0>        -0.4984 
      15 O4         0.0660   -1.0597    7.3236 O.3       1 <0>        -0.3293 
      16 C12        1.1162   -1.8045    6.7013 C.3       1 <0>         0.0498 
      17 C13        2.4500   -1.3190    7.2166 C.2       1 <0>         0.5168 
      18 O5         3.3354   -0.9968    6.4260 O.2       1 <0>        -0.4913 
      19 N1         2.6675   -1.2399    8.5263 N.am      1 <0>        -0.6701 
      20 C14        3.9167   -0.7852    9.0108 C.ar      1 <0>         0.1579 
      21 C15        4.9238   -0.4167    8.1109 C.ar      1 <0>        -0.1362 
      22 C16        6.1615    0.0281    8.5909 C.ar      1 <0>        -0.0710 
      23 C17        6.3892    0.1117    9.9682 C.ar      1 <0>        -0.1038 
      24 C18        5.3813   -0.2547   10.8680 C.ar      1 <0>        -0.0707 
      25 C19        4.1440   -0.7025   10.3897 C.ar      1 <0>        -0.1148 
      26 Br1        8.0691    0.7157   10.6186 Br        1 <0>        -0.0469 
      27 C20       -0.5288    0.5647   -0.4316 C.1       1 <0>         0.2541 
      28 N2        -0.3732    0.6095   -1.5803 N.1       1 <0>        -0.4124 
      29 H1         1.7877    2.6627    3.8554 H         1 <0>         0.1051 
      30 H2         2.9804    1.6380    4.6834 H         1 <0>         0.0578 
      31 H3         2.7048    1.4480    2.9382 H         1 <0>         0.0579 
      32 H4         1.3322    0.7749    1.4070 H         1 <0>         0.1456 
      33 H5        -2.8479    0.2279    0.8595 H         1 <0>         0.1399 
      34 H6        -3.1995    0.1309    3.2572 H         1 <0>         0.1478 
      35 H7        -2.2152    2.1230    5.5120 H         1 <0>         0.0709 
      36 H8        -3.2341    0.6728    5.3834 H         1 <0>         0.0709 
      37 H9        -1.2775    1.2658    7.6430 H         1 <0>         0.0878 
      38 H10       -3.0440    1.4348    7.7361 H         1 <0>         0.0877 
      39 H11       -2.3189   -0.7247    8.6941 H         1 <0>         0.1149 
      40 H12       -3.2940   -0.9812    7.2310 H         1 <0>         0.1150 
      41 H13        1.0717   -1.6640    5.6234 H         1 <0>         0.1060 
      42 H14        1.0005   -2.8607    6.9351 H         1 <0>         0.1063 
      43 H15        1.9404   -1.5045    9.1755 H         1 <0>         0.4168 
      44 H16        4.7412   -0.4753    7.0480 H         1 <0>         0.1372 
      45 H17        6.9397    0.3135    7.8987 H         1 <0>         0.1390 
      46 H18        5.5601   -0.1905   11.9311 H         1 <0>         0.1383 
      47 H19        3.3623   -0.9829   11.0801 H         1 <0>         0.1486 
@<TRIPOS>BOND
       1        1        2 1        
       2        1       29 1        
       3        1       30 1        
       4        1       31 1        
       5        2        3 1        
       6        3        8 ar       
       7        3        4 ar       
       8        4        5 ar       
       9        4       32 1        
      10        5        6 ar       
      11        5       27 1        
      12        6        7 ar       
      13        6       33 1        
      14        7        8 ar       
      15        7       34 1        
      16        8        9 1        
      17        9       10 1        
      18       10       11 1        
      19       10       35 1        
      20       10       36 1        
      21       11       12 1        
      22       11       37 1        
      23       11       38 1        
      24       12       13 1        
      25       12       39 1        
      26       12       40 1        
      27       13       14 2        
      28       13       15 1        
      29       15       16 1        
      30       16       17 1        
      31       16       41 1        
      32       16       42 1        
      33       17       18 2        
      34       17       19 am       
      35       19       20 1        
      36       19       43 1        
      37       20       25 ar       
      38       20       21 ar       
      39       21       22 ar       
      40       21       44 1        
      41       22       23 ar       
      42       22       45 1        
      43       23       24 ar       
      44       23       26 1        
      45       24       25 ar       
      46       24       46 1        
      47       25       47 1        
      48       27       28 3        

