#        1GCZ_R01_S0001_C0000_L00011_S0001_C0012_G0010_E0001.mol2
#        Tue Jun  6 14:11:40 2017
#        Descriptor:     36    19    18     9     7    14
#        Energy - RMSD - RMSD MassCentre:     -76.1922    999.9999    999.9999
#        Receptor:       1  Surface Point:     1  Conformer:     0
#        Ligand:        11  Surface Point:     1  Conformer:    12
#        BUDE Formal Charge: 0
#        ATOM Count: 47
#        Heavy ATOM Count: 28
@<TRIPOS>MOLECULE
ZINC61303593_1GCZ_R01_S0001_C0000_L00011_S0001_C0012_G0010_E0001
 47 48 0 0 0
SMALL
USER_CHARGES
@<TRIPOS>ATOM
       1 C1         2.7305    0.1483    3.8931 C.3       1 <0>         0.0220 
       2 O1         1.4432   -0.4144    4.1593 O.3       1 <0>        -0.3006 
       3 C2         0.4386   -0.1746    3.2594 C.ar      1 <0>         0.1008 
       4 C3         0.6230   -0.1857    1.8716 C.ar      1 <0>        -0.1273 
       5 C4        -0.4461    0.0676    1.0040 C.ar      1 <0>        -0.0284 
       6 C5        -1.7114    0.3345    1.5266 C.ar      1 <0>        -0.0603 
       7 C6        -1.8999    0.3465    2.9137 C.ar      1 <0>        -0.1775 
       8 C7        -0.8319    0.0934    3.7827 C.ar      1 <0>         0.1359 
       9 O2        -0.9508    0.0906    5.1475 O.3       1 <0>        -0.2949 
      10 C8        -1.7272    1.1262    5.7554 C.3       1 <0>         0.0554 
      11 C9        -1.7293    0.9368    7.2715 C.3       1 <0>        -0.1108 
      12 C10       -2.3531   -0.4152    7.6142 C.3       1 <0>        -0.1085 
      13 C11       -1.5373   -1.5190    6.9847 C.2       1 <0>         0.4668 
      14 O3        -2.0392   -2.2533    6.1865 O.2       1 <0>        -0.4984 
      15 O4        -0.2401   -1.6764    7.3236 O.3       1 <0>        -0.3293 
      16 C12        0.4921   -2.7354    6.7013 C.3       1 <0>         0.0498 
      17 C13        1.9114   -2.7354    7.2166 C.2       1 <0>         0.5168 
      18 O5         2.8536   -2.7354    6.4260 O.2       1 <0>        -0.4913 
      19 N1         2.1429   -2.7354    8.5263 N.am      1 <0>        -0.6701 
      20 C14        3.4723   -2.7354    9.0108 C.ar      1 <0>         0.1579 
      21 C15        4.5446   -2.7336    8.1109 C.ar      1 <0>        -0.1362 
      22 C16        5.8598   -2.7389    8.5909 C.ar      1 <0>        -0.0710 
      23 C17        6.1024   -2.7382    9.9682 C.ar      1 <0>        -0.1038 
      24 C18        5.0299   -2.7378   10.8680 C.ar      1 <0>        -0.0707 
      25 C19        3.7141   -2.7354   10.3897 C.ar      1 <0>        -0.1148 
      26 Br1        7.8875   -2.7452   10.6186 Br        1 <0>        -0.0469 
      27 C20       -0.2434    0.0535   -0.4316 C.1       1 <0>         0.2541 
      28 N2        -0.0819    0.0424   -1.5803 N.1       1 <0>        -0.4124 
      29 H1         2.6509    1.2327    3.8554 H         1 <0>         0.1051 
      30 H2         3.4213   -0.1381    4.6834 H         1 <0>         0.0578 
      31 H3         3.0973   -0.2224    2.9382 H         1 <0>         0.0579 
      32 H4         1.5772   -0.3855    1.4070 H         1 <0>         0.1456 
      33 H5        -2.5379    0.5302    0.8595 H         1 <0>         0.1399 
      34 H6        -2.9015    0.5593    3.2572 H         1 <0>         0.1478 
      35 H7        -1.2952    2.0946    5.5120 H         1 <0>         0.0709 
      36 H8        -2.7486    1.0804    5.3834 H         1 <0>         0.0709 
      37 H9        -0.7072    0.9684    7.6430 H         1 <0>         0.0878 
      38 H10       -2.3094    1.7314    7.7361 H         1 <0>         0.0877 
      39 H11       -2.3666   -0.5459    8.6941 H         1 <0>         0.1149 
      40 H12       -3.3706   -0.4534    7.2310 H         1 <0>         0.1150 
      41 H13        0.4983   -2.5882    5.6234 H         1 <0>         0.1060 
      42 H14        0.0220   -3.6883    6.9351 H         1 <0>         0.1063 
      43 H15        1.3691   -2.7354    9.1755 H         1 <0>         0.4168 
      44 H16        4.3530   -2.7262    7.0480 H         1 <0>         0.1372 
      45 H17        6.6887   -2.7369    7.8987 H         1 <0>         0.1390 
      46 H18        5.2199   -2.7387   11.9311 H         1 <0>         0.1383 
      47 H19        2.8837   -2.7316   11.0801 H         1 <0>         0.1486 
@<TRIPOS>BOND
       1        1        2 1        
       2        1       29 1        
       3        1       30 1        
       4        1       31 1        
       5        2        3 1        
       6        3        8 ar       
       7        3        4 ar       
       8        4        5 ar       
       9        4       32 1        
      10        5        6 ar       
      11        5       27 1        
      12        6        7 ar       
      13        6       33 1        
      14        7        8 ar       
      15        7       34 1        
      16        8        9 1        
      17        9       10 1        
      18       10       11 1        
      19       10       35 1        
      20       10       36 1        
      21       11       12 1        
      22       11       37 1        
      23       11       38 1        
      24       12       13 1        
      25       12       39 1        
      26       12       40 1        
      27       13       14 2        
      28       13       15 1        
      29       15       16 1        
      30       16       17 1        
      31       16       41 1        
      32       16       42 1        
      33       17       18 2        
      34       17       19 am       
      35       19       20 1        
      36       19       43 1        
      37       20       25 ar       
      38       20       21 ar       
      39       21       22 ar       
      40       21       44 1        
      41       22       23 ar       
      42       22       45 1        
      43       23       24 ar       
      44       23       26 1        
      45       24       25 ar       
      46       24       46 1        
      47       25       47 1        
      48       27       28 3        

