#        1GCZ_R01_S0001_C0000_L00011_S0001_C0013_G0010_E0001.mol2
#        Tue Jun  6 09:58:03 2017
#        Descriptor:      3     6     6     8    10    12
#        Energy - RMSD - RMSD MassCentre:     -88.4564    999.9999    999.9999
#        Receptor:       1  Surface Point:     1  Conformer:     0
#        Ligand:        11  Surface Point:     1  Conformer:    13
#        BUDE Formal Charge: 0
#        ATOM Count: 47
#        Heavy ATOM Count: 28
@<TRIPOS>MOLECULE
ZINC61303593_1GCZ_R01_S0001_C0000_L00011_S0001_C0013_G0010_E0001
 47 48 0 0 0
SMALL
USER_CHARGES
@<TRIPOS>ATOM
       1 C1        -0.6147   -3.1646    0.9077 C.3       1 <0>         0.0220 
       2 O1        -0.2731   -1.8442    1.3373 O.3       1 <0>        -0.3006 
       3 C2        -0.0783   -0.8865    0.3773 C.ar      1 <0>         0.1008 
       4 C3         0.5940   -1.1233   -0.8276 C.ar      1 <0>        -0.1273 
       5 C4         0.7604   -0.1006   -1.7690 C.ar      1 <0>        -0.0284 
       6 C5         0.2507    1.1706   -1.5053 C.ar      1 <0>        -0.0603 
       7 C6        -0.4223    1.4114   -0.3016 C.ar      1 <0>        -0.1775 
       8 C7        -0.5895    0.3899    0.6409 C.ar      1 <0>         0.1359 
       9 O2        -1.2373    0.5610    1.8359 O.3       1 <0>        -0.2949 
      10 C8        -0.9712    1.7537    2.5784 C.3       1 <0>         0.0554 
      11 C9         0.5133    1.8097    2.9358 C.3       1 <0>        -0.1108 
      12 C10        0.8750    0.6002    3.7964 C.3       1 <0>        -0.1085 
      13 C11        0.0641    0.6292    5.0700 C.2       1 <0>         0.4668 
      14 O3        -0.6839   -0.2677    5.3236 O.2       1 <0>        -0.4984 
      15 O4         0.1842    1.6689    5.9226 O.3       1 <0>        -0.3293 
      16 C12       -0.6039    1.6524    7.1157 C.3       1 <0>         0.0498 
      17 C13       -0.3205    2.8971    7.9222 C.2       1 <0>         0.5168 
      18 O5        -0.0186    2.8052    9.1110 O.2       1 <0>        -0.4913 
      19 N1        -0.3976    4.0937    7.3468 N.am      1 <0>        -0.6701 
      20 C14       -0.1324    5.2611    8.1012 C.ar      1 <0>         0.1579 
      21 C15        0.2131    5.1561    9.4537 C.ar      1 <0>        -0.1362 
      22 C16        0.4702    6.3119   10.2010 C.ar      1 <0>        -0.0710 
      23 C17        0.3897    7.5697    9.5950 C.ar      1 <0>        -0.1038 
      24 C18        0.0464    7.6742    8.2419 C.ar      1 <0>        -0.0707 
      25 C19       -0.2139    6.5197    7.4939 C.ar      1 <0>        -0.1148 
      26 Br1        0.7391    9.1374   10.6099 Br        1 <0>        -0.0469 
      27 C20        1.4585   -0.3572   -3.0137 C.1       1 <0>         0.2541 
      28 N2         2.0168   -0.5620   -4.0096 N.1       1 <0>        -0.4124 
      29 H1         0.1847   -3.5608    0.2851 H         1 <0>         0.1051 
      30 H2        -0.7493   -3.8046    1.7772 H         1 <0>         0.0578 
      31 H3        -1.5389   -3.1312    0.3347 H         1 <0>         0.0579 
      32 H4         1.0106   -2.0847   -1.0892 H         1 <0>         0.1456 
      33 H5         0.3776    1.9614   -2.2298 H         1 <0>         0.1399 
      34 H6        -0.7938    2.4148   -0.1551 H         1 <0>         0.1478 
      35 H7        -1.2317    2.6219    1.9767 H         1 <0>         0.0709 
      36 H8        -1.5635    1.7534    3.4911 H         1 <0>         0.0709 
      37 H9         1.1072    1.7960    2.0242 H         1 <0>         0.0878 
      38 H10        0.7195    2.7229    3.4899 H         1 <0>         0.0877 
      39 H11        0.6562   -0.3140    3.2487 H         1 <0>         0.1149 
      40 H12        1.9346    0.6321    4.0412 H         1 <0>         0.1150 
      41 H13       -0.3518    0.7737    7.7055 H         1 <0>         0.1060 
      42 H14       -1.6593    1.6234    6.8535 H         1 <0>         0.1063 
      43 H15       -0.6455    4.1692    6.3706 H         1 <0>         0.4168 
      44 H16        0.2819    4.1824    9.9160 H         1 <0>         0.1372 
      45 H17        0.7375    6.2336   11.2444 H         1 <0>         0.1390 
      46 H18       -0.0165    8.6469    7.7766 H         1 <0>         0.1383 
      47 H19       -0.4757    6.5953    6.4489 H         1 <0>         0.1486 
@<TRIPOS>BOND
       1        1        2 1        
       2        1       29 1        
       3        1       30 1        
       4        1       31 1        
       5        2        3 1        
       6        3        8 ar       
       7        3        4 ar       
       8        4        5 ar       
       9        4       32 1        
      10        5        6 ar       
      11        5       27 1        
      12        6        7 ar       
      13        6       33 1        
      14        7        8 ar       
      15        7       34 1        
      16        8        9 1        
      17        9       10 1        
      18       10       11 1        
      19       10       35 1        
      20       10       36 1        
      21       11       12 1        
      22       11       37 1        
      23       11       38 1        
      24       12       13 1        
      25       12       39 1        
      26       12       40 1        
      27       13       14 2        
      28       13       15 1        
      29       15       16 1        
      30       16       17 1        
      31       16       41 1        
      32       16       42 1        
      33       17       18 2        
      34       17       19 am       
      35       19       20 1        
      36       19       43 1        
      37       20       25 ar       
      38       20       21 ar       
      39       21       22 ar       
      40       21       44 1        
      41       22       23 ar       
      42       22       45 1        
      43       23       24 ar       
      44       23       26 1        
      45       24       25 ar       
      46       24       46 1        
      47       25       47 1        
      48       27       28 3        

