#        1GCZ_R01_S0001_C0000_L00011_S0001_C0013_G0010_E0001.mol2
#        Tue Jun  6 14:11:42 2017
#        Descriptor:     27    21    11    12     7    14
#        Energy - RMSD - RMSD MassCentre:     -54.9858    999.9999    999.9999
#        Receptor:       1  Surface Point:     1  Conformer:     0
#        Ligand:        11  Surface Point:     1  Conformer:    13
#        BUDE Formal Charge: 0
#        ATOM Count: 47
#        Heavy ATOM Count: 28
@<TRIPOS>MOLECULE
ZINC61303593_1GCZ_R01_S0001_C0000_L00011_S0001_C0013_G0010_E0001
 47 48 0 0 0
SMALL
USER_CHARGES
@<TRIPOS>ATOM
       1 C1        -0.6567    2.2304    8.1195 C.3       1 <0>         0.0220 
       2 O1         0.5458    1.7974    7.4784 O.3       1 <0>        -0.3006 
       3 C2         1.5627    2.7049    7.3396 C.ar      1 <0>         0.1008 
       4 C3         1.3614    4.0463    6.9930 C.ar      1 <0>        -0.1273 
       5 C4         2.4443    4.9246    6.8668 C.ar      1 <0>        -0.0284 
       6 C5         3.7404    4.4595    7.0887 C.ar      1 <0>        -0.0603 
       7 C6         3.9457    3.1188    7.4354 C.ar      1 <0>        -0.1775 
       8 C7         2.8640    2.2392    7.5621 C.ar      1 <0>         0.1359 
       9 O2         2.9980    0.9179    7.8981 O.3       1 <0>        -0.2949 
      10 C8         4.0524    0.1730    7.2831 C.3       1 <0>         0.0554 
      11 C9         3.8526    0.1648    5.7682 C.3       1 <0>        -0.1108 
      12 C10        2.5177   -0.4997    5.4351 C.3       1 <0>        -0.1085 
      13 C11        2.5274   -1.9248    5.9346 C.2       1 <0>         0.4668 
      14 O3         1.7271   -2.2790    6.7483 O.2       1 <0>        -0.4984 
      15 O4         3.4406   -2.7992    5.4616 O.3       1 <0>        -0.3293 
      16 C12        3.4108   -4.1376    5.9642 C.3       1 <0>         0.0498 
      17 C13        4.5068   -4.9444    5.3100 C.2       1 <0>         0.5168 
      18 O5         4.2444   -6.0216    4.7774 O.2       1 <0>        -0.4913 
      19 N1         5.7568   -4.4900    5.3098 N.am      1 <0>        -0.6701 
      20 C14        6.7850   -5.2448    4.6972 C.ar      1 <0>         0.1579 
      21 C15        6.4859   -6.4700    4.0895 C.ar      1 <0>        -0.1362 
      22 C16        7.5045   -7.2189    3.4881 C.ar      1 <0>        -0.0710 
      23 C17        8.8185   -6.7400    3.4877 C.ar      1 <0>        -0.1038 
      24 C18        9.1170   -5.5138    4.0935 C.ar      1 <0>        -0.0707 
      25 C19        8.1000   -4.7649    4.6979 C.ar      1 <0>        -0.1148 
      26 Br1       10.2001   -7.7570    2.6712 Br        1 <0>        -0.0469 
      27 C20        2.2241    6.3119    6.5073 C.1       1 <0>         0.2541 
      28 N2         2.0485    7.4219    6.2199 N.1       1 <0>        -0.4124 
      29 H1        -1.0959    3.0476    7.5512 H         1 <0>         0.1051 
      30 H2        -1.3601    1.4017    8.1672 H         1 <0>         0.0578 
      31 H3        -0.4275    2.5707    9.1272 H         1 <0>         0.0579 
      32 H4         0.3834    4.4656    6.8088 H         1 <0>         0.1456 
      33 H5         4.5776    5.1349    6.9920 H         1 <0>         0.1399 
      34 H6         4.9709    2.8187    7.5943 H         1 <0>         0.1478 
      35 H7         5.0089    0.6342    7.5195 H         1 <0>         0.0709 
      36 H8         4.0401   -0.8493    7.6553 H         1 <0>         0.0709 
      37 H9         3.8507    1.1874    5.3965 H         1 <0>         0.0878 
      38 H10        4.6610   -0.3910    5.2980 H         1 <0>         0.0877 
      39 H11        1.7095    0.0471    5.9161 H         1 <0>         0.1149 
      40 H12        2.3684   -0.4949    4.3574 H         1 <0>         0.1150 
      41 H13        2.4464   -4.5885    5.7400 H         1 <0>         0.1060 
      42 H14        3.5644   -4.1247    7.0411 H         1 <0>         0.1063 
      43 H15        5.9722   -3.6054    5.7471 H         1 <0>         0.4168 
      44 H16        5.4685   -6.8325    4.0851 H         1 <0>         0.1372 
      45 H17        7.2763   -8.1640    3.0182 H         1 <0>         0.1390 
      46 H18       10.1328   -5.1469    4.0931 H         1 <0>         0.1383 
      47 H19        8.3250   -3.8168    5.1634 H         1 <0>         0.1486 
@<TRIPOS>BOND
       1        1        2 1        
       2        1       29 1        
       3        1       30 1        
       4        1       31 1        
       5        2        3 1        
       6        3        8 ar       
       7        3        4 ar       
       8        4        5 ar       
       9        4       32 1        
      10        5        6 ar       
      11        5       27 1        
      12        6        7 ar       
      13        6       33 1        
      14        7        8 ar       
      15        7       34 1        
      16        8        9 1        
      17        9       10 1        
      18       10       11 1        
      19       10       35 1        
      20       10       36 1        
      21       11       12 1        
      22       11       37 1        
      23       11       38 1        
      24       12       13 1        
      25       12       39 1        
      26       12       40 1        
      27       13       14 2        
      28       13       15 1        
      29       15       16 1        
      30       16       17 1        
      31       16       41 1        
      32       16       42 1        
      33       17       18 2        
      34       17       19 am       
      35       19       20 1        
      36       19       43 1        
      37       20       25 ar       
      38       20       21 ar       
      39       21       22 ar       
      40       21       44 1        
      41       22       23 ar       
      42       22       45 1        
      43       23       24 ar       
      44       23       26 1        
      45       24       25 ar       
      46       24       46 1        
      47       25       47 1        
      48       27       28 3        

