#        1GCZ_R01_S0001_C0000_L00011_S0001_C0014_G0010_E0001.mol2
#        Tue Jun  6 09:58:04 2017
#        Descriptor:      2    30    29     8    10    13
#        Energy - RMSD - RMSD MassCentre:     -83.2064    999.9999    999.9999
#        Receptor:       1  Surface Point:     1  Conformer:     0
#        Ligand:        11  Surface Point:     1  Conformer:    14
#        BUDE Formal Charge: 0
#        ATOM Count: 47
#        Heavy ATOM Count: 28
@<TRIPOS>MOLECULE
ZINC61303593_1GCZ_R01_S0001_C0000_L00011_S0001_C0014_G0010_E0001
 47 48 0 0 0
SMALL
USER_CHARGES
@<TRIPOS>ATOM
       1 C1        -0.5368    1.5177   11.0077 C.3       1 <0>         0.0220 
       2 O1        -0.1747    1.9062    9.6800 O.3       1 <0>        -0.3006 
       3 C2         0.1837    3.2113    9.4676 C.ar      1 <0>         0.1008 
       4 C3         0.9778    3.9501   10.3528 C.ar      1 <0>        -0.1273 
       5 C4         1.3095    5.2821   10.0778 C.ar      1 <0>        -0.0284 
       6 C5         0.8441    5.8824    8.9080 C.ar      1 <0>        -0.0603 
       7 C6         0.0498    5.1469    8.0203 C.ar      1 <0>        -0.1775 
       8 C7        -0.2829    3.8149    8.2938 C.ar      1 <0>         0.1359 
       9 O2        -1.0551    3.0422    7.4670 O.3       1 <0>        -0.2949 
      10 C8        -0.8114    3.1152    6.0598 C.3       1 <0>         0.0554 
      11 C9         0.6221    2.6739    5.7684 C.3       1 <0>        -0.1108 
      12 C10        0.8131    1.2297    6.2294 C.3       1 <0>        -0.1085 
      13 C11       -0.1379    0.3316    5.4748 C.2       1 <0>         0.4668 
      14 O3        -0.9591   -0.3028    6.0676 O.2       1 <0>        -0.4984 
      15 O4        -0.0604    0.2452    4.1299 O.3       1 <0>        -0.3293 
      16 C12       -0.9819   -0.6183    3.4590 C.3       1 <0>         0.0498 
      17 C13       -0.7257   -0.5682    1.9717 C.2       1 <0>         0.5168 
      18 O5        -0.5700   -1.6109    1.3382 O.2       1 <0>        -0.4913 
      19 N1        -0.6684    0.6042    1.3464 N.am      1 <0>        -0.6701 
      20 C14       -0.4284    0.6529   -0.0472 C.ar      1 <0>         0.1579 
      21 C15       -0.2530   -0.5341   -0.7685 C.ar      1 <0>        -0.1362 
      22 C16       -0.0103   -0.4851   -2.1465 C.ar      1 <0>        -0.0710 
      23 C17        0.0491    0.7481   -2.8034 C.ar      1 <0>        -0.1038 
      24 C18       -0.1284    1.9348   -2.0824 C.ar      1 <0>        -0.0707 
      25 C19       -0.3683    1.8878   -0.7038 C.ar      1 <0>        -0.1148 
      26 Br1        0.3783    0.8135   -4.6735 Br        1 <0>        -0.0469 
      27 C20        2.1326    6.0378   11.0018 C.1       1 <0>         0.2541 
      28 N2         2.7910    6.6428   11.7406 N.1       1 <0>        -0.4124 
      29 H1        -1.4012    2.0943   11.3305 H         1 <0>         0.1051 
      30 H2        -0.7817    0.4576   11.0206 H         1 <0>         0.0578 
      31 H3         0.2973    1.7060   11.6803 H         1 <0>         0.0579 
      32 H4         1.3678    3.5419   11.2735 H         1 <0>         0.1456 
      33 H5         1.0984    6.9098    8.6933 H         1 <0>         0.1399 
      34 H6        -0.2798    5.6661    7.1325 H         1 <0>         0.1478 
      35 H7        -1.5052    2.4606    5.5365 H         1 <0>         0.0709 
      36 H8        -0.9512    4.1391    5.7195 H         1 <0>         0.0709 
      37 H9         0.8128    2.7408    4.6995 H         1 <0>         0.0878 
      38 H10        1.3166    3.3191    6.3025 H         1 <0>         0.0877 
      39 H11        1.8371    0.9182    6.0339 H         1 <0>         0.1149 
      40 H12        0.6091    1.1586    7.2956 H         1 <0>         0.1150 
      41 H13       -1.9996   -0.2916    3.6622 H         1 <0>         0.1060 
      42 H14       -0.8496   -1.6377    3.8150 H         1 <0>         0.1063 
      43 H15       -0.7962    1.4605    1.8667 H         1 <0>         0.4168 
      44 H16       -0.3075   -1.4847   -0.2587 H         1 <0>         0.1372 
      45 H17        0.1247   -1.3993   -2.7052 H         1 <0>         0.1390 
      46 H18       -0.0806    2.8859   -2.5918 H         1 <0>         0.1383 
      47 H19       -0.5094    2.8005   -0.1441 H         1 <0>         0.1486 
@<TRIPOS>BOND
       1        1        2 1        
       2        1       29 1        
       3        1       30 1        
       4        1       31 1        
       5        2        3 1        
       6        3        8 ar       
       7        3        4 ar       
       8        4        5 ar       
       9        4       32 1        
      10        5        6 ar       
      11        5       27 1        
      12        6        7 ar       
      13        6       33 1        
      14        7        8 ar       
      15        7       34 1        
      16        8        9 1        
      17        9       10 1        
      18       10       11 1        
      19       10       35 1        
      20       10       36 1        
      21       11       12 1        
      22       11       37 1        
      23       11       38 1        
      24       12       13 1        
      25       12       39 1        
      26       12       40 1        
      27       13       14 2        
      28       13       15 1        
      29       15       16 1        
      30       16       17 1        
      31       16       41 1        
      32       16       42 1        
      33       17       18 2        
      34       17       19 am       
      35       19       20 1        
      36       19       43 1        
      37       20       25 ar       
      38       20       21 ar       
      39       21       22 ar       
      40       21       44 1        
      41       22       23 ar       
      42       22       45 1        
      43       23       24 ar       
      44       23       26 1        
      45       24       25 ar       
      46       24       46 1        
      47       25       47 1        
      48       27       28 3        

