#        1GCZ_R01_S0001_C0000_L00011_S0001_C0015_G0010_E0001.mol2
#        Tue Jun  6 09:58:05 2017
#        Descriptor:      1    30    28     8    10    13
#        Energy - RMSD - RMSD MassCentre:     -80.9981    999.9999    999.9999
#        Receptor:       1  Surface Point:     1  Conformer:     0
#        Ligand:        11  Surface Point:     1  Conformer:    15
#        BUDE Formal Charge: 0
#        ATOM Count: 47
#        Heavy ATOM Count: 28
@<TRIPOS>MOLECULE
ZINC61303593_1GCZ_R01_S0001_C0000_L00011_S0001_C0015_G0010_E0001
 47 48 0 0 0
SMALL
USER_CHARGES
@<TRIPOS>ATOM
       1 C1         1.0229    1.8432   11.1538 C.3       1 <0>         0.0220 
       2 O1         0.9472    2.1368    9.7564 O.3       1 <0>        -0.3006 
       3 C2         0.2364    3.2423    9.3695 C.ar      1 <0>         0.1008 
       4 C3        -0.9832    3.6188    9.9446 C.ar      1 <0>        -0.1273 
       5 C4        -1.6613    4.7615    9.5037 C.ar      1 <0>        -0.0284 
       6 C5        -1.1169    5.5357    8.4793 C.ar      1 <0>        -0.0603 
       7 C6         0.1025    5.1624    7.9018 C.ar      1 <0>        -0.1775 
       8 C7         0.7819    4.0201    8.3414 C.ar      1 <0>         0.1359 
       9 O2         1.9770    3.6017    7.8182 O.3       1 <0>        -0.2949 
      10 C8         2.1393    3.6448    6.3980 C.3       1 <0>         0.0554 
      11 C9         1.0959    2.7433    5.7395 C.3       1 <0>        -0.1108 
      12 C10        1.2928    1.3052    6.2167 C.3       1 <0>        -0.1085 
      13 C11        0.2618    0.4143    5.5658 C.2       1 <0>         0.4668 
      14 O3        -0.5205   -0.1871    6.2401 O.2       1 <0>        -0.4984 
      15 O4         0.2236    0.2971    4.2215 O.3       1 <0>        -0.3293 
      16 C12       -0.7703   -0.5581    3.6508 C.3       1 <0>         0.0498 
      17 C13       -0.6394   -0.5463    2.1465 C.2       1 <0>         0.5168 
      18 O5        -0.5610   -1.6059    1.5268 O.2       1 <0>        -0.4913 
      19 N1        -0.6089    0.6107    1.4912 N.am      1 <0>        -0.6701 
      20 C14       -0.4863    0.6234    0.0816 C.ar      1 <0>         0.1579 
      21 C15       -0.3989   -0.5827   -0.6237 C.ar      1 <0>        -0.1362 
      22 C16       -0.2723   -0.5693   -2.0180 C.ar      1 <0>        -0.0710 
      23 C17       -0.2410    0.6476   -2.7065 C.ar      1 <0>        -0.1038 
      24 C18       -0.3306    1.8535   -2.0012 C.ar      1 <0>        -0.0707 
      25 C19       -0.4543    1.8421   -0.6066 C.ar      1 <0>        -0.1148 
      26 Br1       -0.0694    0.6647   -4.5986 Br        1 <0>        -0.0469 
      27 C20       -2.9240    5.1421   10.1066 C.1       1 <0>         0.2541 
      28 N2        -3.9341    5.4471   10.5884 N.1       1 <0>        -0.4124 
      29 H1         0.0211    1.6734   11.5427 H         1 <0>         0.1051 
      30 H2         1.6272    0.9510   11.3040 H         1 <0>         0.0578 
      31 H3         1.4780    2.6823   11.6759 H         1 <0>         0.0579 
      32 H4        -1.4552    3.0614   10.7401 H         1 <0>         0.1456 
      33 H5        -1.6380    6.4177    8.1373 H         1 <0>         0.1399 
      34 H6         0.4725    5.8013    7.1136 H         1 <0>         0.1478 
      35 H7         2.0075    4.6665    6.0481 H         1 <0>         0.0709 
      36 H8         3.1360    3.2966    6.1356 H         1 <0>         0.0709 
      37 H9         0.0988    3.0820    6.0127 H         1 <0>         0.0878 
      38 H10        1.2103    2.7849    4.6584 H         1 <0>         0.0877 
      39 H11        2.2894    0.9649    5.9435 H         1 <0>         0.1149 
      40 H12        1.1780    1.2621    7.2976 H         1 <0>         0.1150 
      41 H13       -1.7596   -0.2026    3.9309 H         1 <0>         0.1060 
      42 H14       -0.6312   -1.5725    4.0183 H         1 <0>         0.1063 
      43 H15       -0.6733    1.4807    2.0000 H         1 <0>         0.4168 
      44 H16       -0.4313   -1.5205   -0.0890 H         1 <0>         0.1372 
      45 H17       -0.2053   -1.4983   -2.5645 H         1 <0>         0.1390 
      46 H18       -0.3048    2.7920   -2.5351 H         1 <0>         0.1383 
      47 H19       -0.5273    2.7698   -0.0587 H         1 <0>         0.1486 
@<TRIPOS>BOND
       1        1        2 1        
       2        1       29 1        
       3        1       30 1        
       4        1       31 1        
       5        2        3 1        
       6        3        8 ar       
       7        3        4 ar       
       8        4        5 ar       
       9        4       32 1        
      10        5        6 ar       
      11        5       27 1        
      12        6        7 ar       
      13        6       33 1        
      14        7        8 ar       
      15        7       34 1        
      16        8        9 1        
      17        9       10 1        
      18       10       11 1        
      19       10       35 1        
      20       10       36 1        
      21       11       12 1        
      22       11       37 1        
      23       11       38 1        
      24       12       13 1        
      25       12       39 1        
      26       12       40 1        
      27       13       14 2        
      28       13       15 1        
      29       15       16 1        
      30       16       17 1        
      31       16       41 1        
      32       16       42 1        
      33       17       18 2        
      34       17       19 am       
      35       19       20 1        
      36       19       43 1        
      37       20       25 ar       
      38       20       21 ar       
      39       21       22 ar       
      40       21       44 1        
      41       22       23 ar       
      42       22       45 1        
      43       23       24 ar       
      44       23       26 1        
      45       24       25 ar       
      46       24       46 1        
      47       25       47 1        
      48       27       28 3        

