#        1GCZ_R01_S0001_C0000_L00011_S0001_C0015_G0010_E0001.mol2
#        Tue Jun  6 14:11:46 2017
#        Descriptor:     36    30    26     9    10    13
#        Energy - RMSD - RMSD MassCentre:     -76.1436    999.9999    999.9999
#        Receptor:       1  Surface Point:     1  Conformer:     0
#        Ligand:        11  Surface Point:     1  Conformer:    15
#        BUDE Formal Charge: 0
#        ATOM Count: 47
#        Heavy ATOM Count: 28
@<TRIPOS>MOLECULE
ZINC61303593_1GCZ_R01_S0001_C0000_L00011_S0001_C0015_G0010_E0001
 47 48 0 0 0
SMALL
USER_CHARGES
@<TRIPOS>ATOM
       1 C1         2.5016    1.5927   11.0431 C.3       1 <0>         0.0220 
       2 O1         2.3642    1.9075    9.6551 O.3       1 <0>        -0.3006 
       3 C2         1.8532    3.1341    9.3218 C.ar      1 <0>         0.1008 
       4 C3         0.7857    3.7376    9.9971 C.ar      1 <0>        -0.1273 
       5 C4         0.3093    4.9949    9.6068 C.ar      1 <0>        -0.0284 
       6 C5         0.9041    5.6561    8.5324 C.ar      1 <0>        -0.0603 
       7 C6         1.9719    5.0558    7.8547 C.ar      1 <0>        -0.1775 
       8 C7         2.4495    3.7986    8.2436 C.ar      1 <0>         0.1359 
       9 O2         3.4894    3.1585    7.6224 O.3       1 <0>        -0.2949 
      10 C8         3.5333    3.1811    6.1932 C.3       1 <0>         0.0554 
      11 C9         2.2803    2.5075    5.6354 C.3       1 <0>        -0.1108 
      12 C10        2.2319    1.0547    6.1060 C.3       1 <0>        -0.1085 
      13 C11        0.9936    0.3889    5.5547 C.2       1 <0>         0.4668 
      14 O3         0.1701   -0.0531    6.2993 O.2       1 <0>        -0.4984 
      15 O4         0.8169    0.2931    4.2198 O.3       1 <0>        -0.3293 
      16 C12       -0.3710   -0.3456    3.7446 C.3       1 <0>         0.0498 
      17 C13       -0.3712   -0.3468    2.2346 C.2       1 <0>         0.5168 
      18 O5        -0.5562   -1.3958    1.6196 O.2       1 <0>        -0.4913 
      19 N1        -0.1713    0.7873    1.5692 N.am      1 <0>        -0.6701 
      20 C14       -0.1712    0.7879    0.1542 C.ar      1 <0>         0.1579 
      21 C15       -0.3835   -0.4058   -0.5456 C.ar      1 <0>        -0.1362 
      22 C16       -0.3781   -0.4055   -1.9457 C.ar      1 <0>        -0.0710 
      23 C17       -0.1684    0.7875   -2.6447 C.ar      1 <0>        -0.1038 
      24 C18        0.0417    1.9814   -1.9447 C.ar      1 <0>        -0.0707 
      25 C19        0.0395    1.9825   -0.5446 C.ar      1 <0>        -0.1148 
      26 Br1       -0.1614    0.7868   -4.5446 Br        1 <0>        -0.0469 
      27 C20       -0.7971    5.6106   10.3136 C.1       1 <0>         0.2541 
      28 N2        -1.6822    6.1036   10.8784 N.1       1 <0>        -0.4124 
      29 H1         1.5235    1.6194   11.5188 H         1 <0>         0.1051 
      30 H2         2.9298    0.5981   11.1481 H         1 <0>         0.0578 
      31 H3         3.1559    2.3217   11.5166 H         1 <0>         0.0579 
      32 H4         0.2842    3.2768   10.8352 H         1 <0>         0.1456 
      33 H5         0.5385    6.6260    8.2294 H         1 <0>         0.1399 
      34 H6         2.3903    5.6165    7.0319 H         1 <0>         0.1478 
      35 H7         3.5747    4.2118    5.8473 H         1 <0>         0.0709 
      36 H8         4.4157    2.6464    5.8484 H         1 <0>         0.0709 
      37 H9         1.3965    3.0328    5.9910 H         1 <0>         0.0878 
      38 H10        2.3065    2.5351    4.5481 H         1 <0>         0.0877 
      39 H11        3.1149    0.5279    5.7504 H         1 <0>         0.1149 
      40 H12        2.2049    1.0256    7.1932 H         1 <0>         0.1150 
      41 H13       -1.2434    0.1946    4.1063 H         1 <0>         0.1060 
      42 H14       -0.4023   -1.3707    4.1074 H         1 <0>         0.1063 
      43 H15       -0.0194    1.6487    2.0742 H         1 <0>         0.4168 
      44 H16       -0.5528   -1.3236   -0.0021 H         1 <0>         0.1372 
      45 H17       -0.5422   -1.3249   -2.4879 H         1 <0>         0.1390 
      46 H18        0.2048    2.9012   -2.4868 H         1 <0>         0.1383 
      47 H19        0.1977    2.9017   -0.0004 H         1 <0>         0.1486 
@<TRIPOS>BOND
       1        1        2 1        
       2        1       29 1        
       3        1       30 1        
       4        1       31 1        
       5        2        3 1        
       6        3        8 ar       
       7        3        4 ar       
       8        4        5 ar       
       9        4       32 1        
      10        5        6 ar       
      11        5       27 1        
      12        6        7 ar       
      13        6       33 1        
      14        7        8 ar       
      15        7       34 1        
      16        8        9 1        
      17        9       10 1        
      18       10       11 1        
      19       10       35 1        
      20       10       36 1        
      21       11       12 1        
      22       11       37 1        
      23       11       38 1        
      24       12       13 1        
      25       12       39 1        
      26       12       40 1        
      27       13       14 2        
      28       13       15 1        
      29       15       16 1        
      30       16       17 1        
      31       16       41 1        
      32       16       42 1        
      33       17       18 2        
      34       17       19 am       
      35       19       20 1        
      36       19       43 1        
      37       20       25 ar       
      38       20       21 ar       
      39       21       22 ar       
      40       21       44 1        
      41       22       23 ar       
      42       22       45 1        
      43       23       24 ar       
      44       23       26 1        
      45       24       25 ar       
      46       24       46 1        
      47       25       47 1        
      48       27       28 3        

