#        1GCZ_R01_S0001_C0000_L00011_S0001_C0016_G0010_E0001.mol2
#        Tue Jun  6 09:58:05 2017
#        Descriptor:     11    32     1    10     2    15
#        Energy - RMSD - RMSD MassCentre:     -55.6599    999.9999    999.9999
#        Receptor:       1  Surface Point:     1  Conformer:     0
#        Ligand:        11  Surface Point:     1  Conformer:    16
#        BUDE Formal Charge: 0
#        ATOM Count: 47
#        Heavy ATOM Count: 28
@<TRIPOS>MOLECULE
ZINC61303593_1GCZ_R01_S0001_C0000_L00011_S0001_C0016_G0010_E0001
 47 48 0 0 0
SMALL
USER_CHARGES
@<TRIPOS>ATOM
       1 C1        -3.0768   -9.3560    8.3798 C.3       1 <0>         0.0220 
       2 O1        -2.1033   -8.3516    8.0826 O.3       1 <0>        -0.3006 
       3 C2        -1.7786   -7.4593    9.0700 C.ar      1 <0>         0.1008 
       4 C3        -1.6168   -7.8165   10.4139 C.ar      1 <0>        -0.1273 
       5 C4        -1.2842   -6.8556   11.3762 C.ar      1 <0>        -0.0284 
       6 C5        -1.1114   -5.5256   10.9934 C.ar      1 <0>        -0.0603 
       7 C6        -1.2724   -5.1645    9.6505 C.ar      1 <0>        -0.1775 
       8 C7        -1.6050   -6.1240    8.6870 C.ar      1 <0>         0.1359 
       9 O2        -1.7765   -5.8354    7.3587 O.3       1 <0>        -0.2949 
      10 C8        -0.8402   -4.9501    6.7384 C.3       1 <0>         0.0554 
      11 C9         0.5615   -5.5527    6.8220 C.3       1 <0>        -0.1108 
      12 C10        0.5840   -6.8915    6.0860 C.3       1 <0>        -0.1085 
      13 C11        1.9693   -7.4869    6.1685 C.2       1 <0>         0.4668 
      14 O3         2.1348   -8.5460    6.6969 O.2       1 <0>        -0.4984 
      15 O4         3.0214   -6.8226    5.6450 O.3       1 <0>        -0.3293 
      16 C12        4.3138   -7.4260    5.7471 C.3       1 <0>         0.0498 
      17 C13        5.3410   -6.5255    5.1037 C.2       1 <0>         0.5168 
      18 O5         6.1118   -6.9764    4.2578 O.2       1 <0>        -0.4913 
      19 N1         5.4123   -5.2438    5.4518 N.am      1 <0>        -0.6701 
      20 C14        6.3743   -4.3986    4.8498 C.ar      1 <0>         0.1579 
      21 C15        7.2503   -4.9116    3.8859 C.ar      1 <0>        -0.1362 
      22 C16        8.2054   -4.0760    3.2944 C.ar      1 <0>        -0.0710 
      23 C17        8.2793   -2.7283    3.6605 C.ar      1 <0>        -0.1038 
      24 C18        7.4018   -2.2151    4.6229 C.ar      1 <0>        -0.0707 
      25 C19        6.4479   -3.0499    5.2174 C.ar      1 <0>        -0.1148 
      26 Br1        9.5757   -1.5952    2.8571 Br        1 <0>        -0.0469 
      27 C20       -1.1190   -7.2369   12.7654 C.1       1 <0>         0.2541 
      28 N2        -0.9868   -7.5413   13.8768 N.1       1 <0>        -0.4124 
      29 H1        -4.0203   -8.8803    8.6388 H         1 <0>         0.1051 
      30 H2        -3.2178   -9.9926    7.5088 H         1 <0>         0.0578 
      31 H3        -2.7314   -9.9582    9.2176 H         1 <0>         0.0579 
      32 H4        -1.7370   -8.8282   10.7719 H         1 <0>         0.1456 
      33 H5        -0.8548   -4.7824   11.7338 H         1 <0>         0.1399 
      34 H6        -1.1257   -4.1205    9.4163 H         1 <0>         0.1478 
      35 H7        -1.1115   -4.8078    5.6945 H         1 <0>         0.0709 
      36 H8        -0.8529   -3.9906    7.2511 H         1 <0>         0.0709 
      37 H9         1.2766   -4.8743    6.3615 H         1 <0>         0.0878 
      38 H10        0.8284   -5.7086    7.8651 H         1 <0>         0.0877 
      39 H11       -0.1302   -7.5710    6.5460 H         1 <0>         0.1149 
      40 H12        0.3180   -6.7369    5.0424 H         1 <0>         0.1150 
      41 H13        4.3068   -8.3880    5.2390 H         1 <0>         0.1060 
      42 H14        4.5653   -7.5707    6.7956 H         1 <0>         0.1063 
      43 H15        4.7793   -4.8736    6.1464 H         1 <0>         0.4168 
      44 H16        7.1848   -5.9511    3.6002 H         1 <0>         0.1372 
      45 H17        8.8820   -4.4691    2.5501 H         1 <0>         0.1390 
      46 H18        7.4618   -1.1743    4.9049 H         1 <0>         0.1383 
      47 H19        5.7666   -2.6575    5.9578 H         1 <0>         0.1486 
@<TRIPOS>BOND
       1        1        2 1        
       2        1       29 1        
       3        1       30 1        
       4        1       31 1        
       5        2        3 1        
       6        3        8 ar       
       7        3        4 ar       
       8        4        5 ar       
       9        4       32 1        
      10        5        6 ar       
      11        5       27 1        
      12        6        7 ar       
      13        6       33 1        
      14        7        8 ar       
      15        7       34 1        
      16        8        9 1        
      17        9       10 1        
      18       10       11 1        
      19       10       35 1        
      20       10       36 1        
      21       11       12 1        
      22       11       37 1        
      23       11       38 1        
      24       12       13 1        
      25       12       39 1        
      26       12       40 1        
      27       13       14 2        
      28       13       15 1        
      29       15       16 1        
      30       16       17 1        
      31       16       41 1        
      32       16       42 1        
      33       17       18 2        
      34       17       19 am       
      35       19       20 1        
      36       19       43 1        
      37       20       25 ar       
      38       20       21 ar       
      39       21       22 ar       
      40       21       44 1        
      41       22       23 ar       
      42       22       45 1        
      43       23       24 ar       
      44       23       26 1        
      45       24       25 ar       
      46       24       46 1        
      47       25       47 1        
      48       27       28 3        

