#        1GCZ_R01_S0001_C0000_L00011_S0001_C0016_G0010_E0001.mol2
#        Tue Jun  6 14:11:48 2017
#        Descriptor:      4    36    36    14     9    14
#        Energy - RMSD - RMSD MassCentre:     -58.5848    999.9999    999.9999
#        Receptor:       1  Surface Point:     1  Conformer:     0
#        Ligand:        11  Surface Point:     1  Conformer:    16
#        BUDE Formal Charge: 0
#        ATOM Count: 47
#        Heavy ATOM Count: 28
@<TRIPOS>MOLECULE
ZINC61303593_1GCZ_R01_S0001_C0000_L00011_S0001_C0016_G0010_E0001
 47 48 0 0 0
SMALL
USER_CHARGES
@<TRIPOS>ATOM
       1 C1         0.8367   -2.2076    7.4116 C.3       1 <0>         0.0220 
       2 O1         1.8957   -1.4566    6.8122 O.3       1 <0>        -0.3006 
       3 C2         1.6247   -0.1778    6.4024 C.ar      1 <0>         0.1008 
       4 C3         0.8354    0.7184    7.1329 C.ar      1 <0>        -0.1273 
       5 C4         0.5956    2.0137    6.6587 C.ar      1 <0>        -0.0284 
       6 C5         1.1489    2.4182    5.4440 C.ar      1 <0>        -0.0603 
       7 C6         1.9387    1.5248    4.7107 C.ar      1 <0>        -0.1775 
       8 C7         2.1795    0.2292    5.1833 C.ar      1 <0>         0.1359 
       9 O2         2.9423   -0.6912    4.5141 O.3       1 <0>        -0.2949 
      10 C8         4.1651   -0.2453    3.9215 C.3       1 <0>         0.0554 
      11 C9         5.0887    0.2992    5.0103 C.3       1 <0>        -0.1108 
      12 C10        5.4007   -0.8099    6.0138 C.3       1 <0>        -0.1085 
      13 C11        6.3135   -0.2718    7.0897 C.2       1 <0>         0.4668 
      14 O3         5.9578   -0.2706    8.2306 O.2       1 <0>        -0.4984 
      15 O4         7.5321    0.2081    6.7626 O.3       1 <0>        -0.3293 
      16 C12        8.3612    0.7071    7.8155 C.3       1 <0>         0.0498 
      17 C13        9.6695    1.1918    7.2379 C.2       1 <0>         0.5168 
      18 O5        10.7347    0.7965    7.7090 O.2       1 <0>        -0.4913 
      19 N1         9.6700    2.0467    6.2190 N.am      1 <0>        -0.6701 
      20 C14       10.8951    2.5018    5.6767 C.ar      1 <0>         0.1579 
      21 C15       12.1074    2.0504    6.2118 C.ar      1 <0>        -0.1362 
      22 C16       13.3193    2.5051    5.6782 C.ar      1 <0>        -0.0710 
      23 C17       13.3190    3.4035    4.6064 C.ar      1 <0>        -0.1038 
      24 C18       12.1066    3.8531    4.0700 C.ar      1 <0>        -0.0707 
      25 C19       10.8938    3.4016    4.6043 C.ar      1 <0>        -0.1148 
      26 Br1       14.9641    4.0198    3.8828 Br        1 <0>        -0.0469 
      27 C20       -0.2235    2.9337    7.4238 C.1       1 <0>         0.2541 
      28 N2        -0.8786    3.6702    8.0352 N.1       1 <0>        -0.4124 
      29 H1         0.0217   -2.3162    6.6990 H         1 <0>         0.1051 
      30 H2         1.2055   -3.1912    7.6946 H         1 <0>         0.0578 
      31 H3         0.4786   -1.6855    8.2964 H         1 <0>         0.0579 
      32 H4         0.3800    0.4650    8.0787 H         1 <0>         0.1456 
      33 H5         0.9655    3.4168    5.0760 H         1 <0>         0.1399 
      34 H6         2.3388    1.8959    3.7787 H         1 <0>         0.1478 
      35 H7         4.6504   -1.0792    3.4188 H         1 <0>         0.0709 
      36 H8         3.9536    0.5407    3.1997 H         1 <0>         0.0709 
      37 H9         6.0144    0.6502    4.5593 H         1 <0>         0.0878 
      38 H10        4.5988    1.1241    5.5232 H         1 <0>         0.0877 
      39 H11        4.4758   -1.1614    6.4661 H         1 <0>         0.1149 
      40 H12        5.8914   -1.6353    5.5023 H         1 <0>         0.1150 
      41 H13        8.5545   -0.0873    8.5332 H         1 <0>         0.1060 
      42 H14        7.8577    1.5327    8.3141 H         1 <0>         0.1063 
      43 H15        8.7953    2.3713    5.8322 H         1 <0>         0.4168 
      44 H16       12.1033    1.3505    7.0344 H         1 <0>         0.1372 
      45 H17       14.2558    2.1579    6.0888 H         1 <0>         0.1390 
      46 H18       12.1091    4.5480    3.2432 H         1 <0>         0.1383 
      47 H19        9.9561    3.7430    4.1915 H         1 <0>         0.1486 
@<TRIPOS>BOND
       1        1        2 1        
       2        1       29 1        
       3        1       30 1        
       4        1       31 1        
       5        2        3 1        
       6        3        8 ar       
       7        3        4 ar       
       8        4        5 ar       
       9        4       32 1        
      10        5        6 ar       
      11        5       27 1        
      12        6        7 ar       
      13        6       33 1        
      14        7        8 ar       
      15        7       34 1        
      16        8        9 1        
      17        9       10 1        
      18       10       11 1        
      19       10       35 1        
      20       10       36 1        
      21       11       12 1        
      22       11       37 1        
      23       11       38 1        
      24       12       13 1        
      25       12       39 1        
      26       12       40 1        
      27       13       14 2        
      28       13       15 1        
      29       15       16 1        
      30       16       17 1        
      31       16       41 1        
      32       16       42 1        
      33       17       18 2        
      34       17       19 am       
      35       19       20 1        
      36       19       43 1        
      37       20       25 ar       
      38       20       21 ar       
      39       21       22 ar       
      40       21       44 1        
      41       22       23 ar       
      42       22       45 1        
      43       23       24 ar       
      44       23       26 1        
      45       24       25 ar       
      46       24       46 1        
      47       25       47 1        
      48       27       28 3        

