#        1GCZ_R01_S0001_C0000_L00003_S0001_C0013_G0010_E0001.mol2
#        Tue Jun  6 14:03:52 2017
#        Descriptor:     16    13    20     9     6    12
#        Energy - RMSD - RMSD MassCentre:     -58.5004    999.9999    999.9999
#        Receptor:       1  Surface Point:     1  Conformer:     0
#        Ligand:         3  Surface Point:     1  Conformer:    13
#        BUDE Formal Charge: 0
#        ATOM Count: 58
#        Heavy ATOM Count: 30
@<TRIPOS>MOLECULE
ZINC61580633_1GCZ_R01_S0001_C0000_L00003_S0001_C0013_G0010_E0001
 58 59 0 0 0
SMALL
USER_CHARGES
@<TRIPOS>ATOM
       1 C1         2.6263   -0.7767   -2.8097 C.3       1 <0>        -0.1532 
       2 C2         1.3019   -1.1577   -2.1545 C.3       1 <0>        -0.1224 
       3 C3         1.0706   -0.2784   -0.9265 C.3       1 <0>        -0.1198 
       4 C4        -0.2557   -0.6599   -0.2704 C.3       1 <0>         0.0610 
       5 O1        -0.4721    0.1631    0.8788 O.3       1 <0>        -0.3878 
       6 C5        -1.7029   -0.1497    1.5362 C.3       1 <0>         0.0487 
       7 C6        -1.8757    0.7602    2.7515 C.3       1 <0>         0.1244 
       8 N1        -0.9312    0.3566    3.8030 N.am      1 <0>        -0.7216 
       9 C7        -0.9036    1.0133    4.9593 C.2       1 <0>         0.5161 
      10 O2        -1.6677    1.9580    5.1493 O.2       1 <0>        -0.5151 
      11 C8         0.0668    0.5986    6.0394 C.3       1 <0>         0.0490 
      12 O3        -0.3303   -0.6662    6.5757 O.3       1 <0>        -0.3194 
      13 C9        -1.5247   -0.7423    7.2003 C.2       1 <0>         0.5417 
      14 O4        -2.2292    0.2492    7.2940 O.2       1 <0>        -0.5337 
      15 C10       -1.9794   -2.0294    7.7717 C.2       1 <0>        -0.2559 
      16 C11       -3.2611   -2.2207    8.4867 C.2       1 <0>        -0.0791 
      17 C12       -3.4231   -3.4751    8.9139 C.2       1 <0>        -0.2585 
      18 S1        -2.0608   -4.5221    8.4891 S.3       1 <0>         0.3028 
      19 C13       -1.2559   -3.1552    7.7040 C.2       1 <0>         0.0893 
      20 N2        -0.0294   -3.1987    7.0950 N.am      1 <0>        -0.6099 
      21 C14        0.6528   -4.3396    7.0524 C.2       1 <0>         0.5551 
      22 O5         0.1823   -5.3564    7.5600 O.2       1 <0>        -0.4939 
      23 C15        1.9775   -4.3848    6.3941 C.ar      1 <0>        -0.1466 
      24 C16        2.6624   -5.6058    6.3749 C.ar      1 <0>        -0.0772 
      25 C17        3.9499   -5.6946    5.8326 C.ar      1 <0>        -0.1241 
      26 C18        4.5811   -4.5608    5.3080 C.ar      1 <0>        -0.0446 
      27 C19        3.8782   -3.3504    5.2775 C.ar      1 <0>        -0.1261 
      28 C20        2.5795   -3.2722    5.7944 C.ar      1 <0>        -0.0460 
      29 C21        5.9937   -4.6642    4.7843 C.3       1 <0>        -0.0928 
      30 C22        6.9768   -4.3709    5.9139 C.3       1 <0>        -0.1485 
      31 H1         3.4386   -0.9366   -2.1038 H         1 <0>         0.0567 
      32 H2         2.5983    0.2715   -3.0998 H         1 <0>         0.0554 
      33 H3         2.7846   -1.3936   -3.6918 H         1 <0>         0.0557 
      34 H4         0.4900   -1.0100   -2.8637 H         1 <0>         0.0632 
      35 H5         1.3337   -2.2021   -1.8512 H         1 <0>         0.0635 
      36 H6         1.8813   -0.4256   -0.2163 H         1 <0>         0.0711 
      37 H7         1.0377    0.7663   -1.2288 H         1 <0>         0.0704 
      38 H8        -1.0675   -0.5122   -0.9796 H         1 <0>         0.0498 
      39 H9        -0.2236   -1.7042    0.0330 H         1 <0>         0.0505 
      40 H10       -1.6879   -1.1880    1.8607 H         1 <0>         0.0584 
      41 H11       -2.5316    0.0040    0.8483 H         1 <0>         0.0702 
      42 H12       -2.8933    0.6755    3.1270 H         1 <0>         0.0872 
      43 H13       -1.6790    1.7910    2.4643 H         1 <0>         0.0805 
      44 H14       -0.3031   -0.4191    3.6480 H         1 <0>         0.4058 
      45 H15        1.0662    0.5154    5.6177 H         1 <0>         0.1008 
      46 H16        0.0679    1.3437    6.8322 H         1 <0>         0.0999 
      47 H17       -3.9760   -1.4231    8.6250 H         1 <0>         0.1557 
      48 H18       -4.3028   -3.8025    9.4478 H         1 <0>         0.1929 
      49 H19        0.3569   -2.3638    6.6782 H         1 <0>         0.4317 
      50 H20        2.1965   -6.4889    6.7864 H         1 <0>         0.1287 
      51 H21        4.4660   -6.6431    5.8177 H         1 <0>         0.1326 
      52 H22        4.3502   -2.4798    4.8464 H         1 <0>         0.1342 
      53 H23        2.0652   -2.3284    5.6899 H         1 <0>         0.1410 
      54 H24        6.1362   -3.9430    3.9823 H         1 <0>         0.0777 
      55 H25        6.1662   -5.6689    4.4041 H         1 <0>         0.0771 
      56 H26        6.8419   -5.1004    6.7097 H         1 <0>         0.0623 
      57 H27        6.7940   -3.3713    6.3026 H         1 <0>         0.0572 
      58 H28        7.9942   -4.4324    5.5333 H         1 <0>         0.0578 
@<TRIPOS>BOND
       1        1        2 1        
       2        1       31 1        
       3        1       32 1        
       4        1       33 1        
       5        2        3 1        
       6        2       34 1        
       7        2       35 1        
       8        3        4 1        
       9        3       36 1        
      10        3       37 1        
      11        4        5 1        
      12        4       38 1        
      13        4       39 1        
      14        5        6 1        
      15        6        7 1        
      16        6       40 1        
      17        6       41 1        
      18        7        8 1        
      19        7       42 1        
      20        7       43 1        
      21        8        9 am       
      22        8       44 1        
      23        9       10 2        
      24        9       11 1        
      25       11       12 1        
      26       11       45 1        
      27       11       46 1        
      28       12       13 1        
      29       13       14 2        
      30       13       15 1        
      31       15       19 2        
      32       15       16 1        
      33       16       17 2        
      34       16       47 1        
      35       17       18 1        
      36       17       48 1        
      37       18       19 1        
      38       19       20 1        
      39       20       21 am       
      40       20       49 1        
      41       21       22 2        
      42       21       23 1        
      43       23       28 ar       
      44       23       24 ar       
      45       24       25 ar       
      46       24       50 1        
      47       25       26 ar       
      48       25       51 1        
      49       26       27 ar       
      50       26       29 1        
      51       27       28 ar       
      52       27       52 1        
      53       28       53 1        
      54       29       30 1        
      55       29       54 1        
      56       29       55 1        
      57       30       56 1        
      58       30       57 1        
      59       30       58 1        

