#        1GCZ_R01_S0001_C0000_L00011_S0001_C0017_G0010_E0001.mol2
#        Tue Jun  6 09:58:06 2017
#        Descriptor:     22    22    15     8    10    13
#        Energy - RMSD - RMSD MassCentre:     -67.5604    999.9999    999.9999
#        Receptor:       1  Surface Point:     1  Conformer:     0
#        Ligand:        11  Surface Point:     1  Conformer:    17
#        BUDE Formal Charge: 0
#        ATOM Count: 47
#        Heavy ATOM Count: 28
@<TRIPOS>MOLECULE
ZINC61303593_1GCZ_R01_S0001_C0000_L00011_S0001_C0017_G0010_E0001
 47 48 0 0 0
SMALL
USER_CHARGES
@<TRIPOS>ATOM
       1 C1        -2.4867    3.3861    9.8696 C.3       1 <0>         0.0220 
       2 O1        -1.5143    3.6524    8.8555 O.3       1 <0>        -0.3006 
       3 C2        -0.3655    4.3027    9.2218 C.ar      1 <0>         0.1008 
       4 C3        -0.3354    5.3727   10.1239 C.ar      1 <0>        -0.1273 
       5 C4         0.8731    5.9959   10.4575 C.ar      1 <0>        -0.0284 
       6 C5         2.0629    5.5466    9.8851 C.ar      1 <0>        -0.0603 
       7 C6         2.0370    4.4767    8.9825 C.ar      1 <0>        -0.1775 
       8 C7         0.8294    3.8526    8.6478 C.ar      1 <0>         0.1359 
       9 O2         0.7369    2.8025    7.7728 O.3       1 <0>        -0.2949 
      10 C8         1.5056    2.8634    6.5684 C.3       1 <0>         0.0554 
      11 C9         1.2574    1.6020    5.7426 C.3       1 <0>        -0.1108 
      12 C10       -0.2243    1.5150    5.3800 C.3       1 <0>        -0.1085 
      13 C11       -0.4696    0.2684    4.5638 C.2       1 <0>         0.4668 
      14 O3         0.4378   -0.4644    4.3035 O.2       1 <0>        -0.4984 
      15 O4        -1.7146   -0.0184    4.1280 O.3       1 <0>        -0.3293 
      16 C12       -1.8981   -1.2098    3.3587 C.3       1 <0>         0.0498 
      17 C13       -1.1094   -1.1055    2.0753 C.2       1 <0>         0.5168 
      18 O5        -0.3381   -2.0073    1.7515 O.2       1 <0>        -0.4913 
      19 N1        -1.2487   -0.0379    1.2945 N.am      1 <0>        -0.6701 
      20 C14       -0.5104    0.0613    0.0915 C.ar      1 <0>         0.1579 
      21 C15        0.3661   -0.9659   -0.2778 C.ar      1 <0>        -0.1362 
      22 C16        1.1004   -0.8648   -1.4656 C.ar      1 <0>        -0.0710 
      23 C17        0.9528    0.2578   -2.2864 C.ar      1 <0>        -0.1038 
      24 C18        0.0746    1.2839   -1.9180 C.ar      1 <0>        -0.0707 
      25 C19       -0.6583    1.1857   -0.7291 C.ar      1 <0>        -0.1148 
      26 Br1        1.9495    0.3940   -3.8982 Br        1 <0>        -0.0469 
      27 C20        0.8923    7.1035   11.3931 C.1       1 <0>         0.2541 
      28 N2         0.9084    7.9896   12.1416 N.1       1 <0>        -0.4124 
      29 H1        -2.8295    4.3256   10.2980 H         1 <0>         0.1051 
      30 H2        -3.3305    2.8569    9.4320 H         1 <0>         0.0578 
      31 H3        -2.0383    2.7735   10.6491 H         1 <0>         0.0579 
      32 H4        -1.2217    5.7657   10.5997 H         1 <0>         0.1456 
      33 H5         2.9966    6.0254   10.1406 H         1 <0>         0.1399 
      34 H6         2.9896    4.1747    8.5731 H         1 <0>         0.1478 
      35 H7         1.2094    3.7375    5.9922 H         1 <0>         0.0709 
      36 H8         2.5629    2.9324    6.8153 H         1 <0>         0.0709 
      37 H9         1.8513    1.6414    4.8319 H         1 <0>         0.0878 
      38 H10        1.5401    0.7264    6.3230 H         1 <0>         0.0877 
      39 H11       -0.8193    1.4748    6.2899 H         1 <0>         0.1149 
      40 H12       -0.5081    2.3898    4.7988 H         1 <0>         0.1150 
      41 H13       -2.9537   -1.3328    3.1259 H         1 <0>         0.1060 
      42 H14       -1.5494   -2.0679    3.9292 H         1 <0>         0.1063 
      43 H15       -1.8821    0.7026    1.5604 H         1 <0>         0.4168 
      44 H16        0.4713   -1.8349    0.3550 H         1 <0>         0.1372 
      45 H17        1.7767   -1.6561   -1.7530 H         1 <0>         0.1390 
      46 H18       -0.0365    2.1505   -2.5530 H         1 <0>         0.1383 
      47 H19       -1.3394    1.9733   -0.4426 H         1 <0>         0.1486 
@<TRIPOS>BOND
       1        1        2 1        
       2        1       29 1        
       3        1       30 1        
       4        1       31 1        
       5        2        3 1        
       6        3        8 ar       
       7        3        4 ar       
       8        4        5 ar       
       9        4       32 1        
      10        5        6 ar       
      11        5       27 1        
      12        6        7 ar       
      13        6       33 1        
      14        7        8 ar       
      15        7       34 1        
      16        8        9 1        
      17        9       10 1        
      18       10       11 1        
      19       10       35 1        
      20       10       36 1        
      21       11       12 1        
      22       11       37 1        
      23       11       38 1        
      24       12       13 1        
      25       12       39 1        
      26       12       40 1        
      27       13       14 2        
      28       13       15 1        
      29       15       16 1        
      30       16       17 1        
      31       16       41 1        
      32       16       42 1        
      33       17       18 2        
      34       17       19 am       
      35       19       20 1        
      36       19       43 1        
      37       20       25 ar       
      38       20       21 ar       
      39       21       22 ar       
      40       21       44 1        
      41       22       23 ar       
      42       22       45 1        
      43       23       24 ar       
      44       23       26 1        
      45       24       25 ar       
      46       24       46 1        
      47       25       47 1        
      48       27       28 3        

