#        1GCZ_R01_S0001_C0000_L00011_S0001_C0017_G0010_E0001.mol2
#        Tue Jun  6 14:11:50 2017
#        Descriptor:     28     5    10     9     8    13
#        Energy - RMSD - RMSD MassCentre:     -74.7177    999.9999    999.9999
#        Receptor:       1  Surface Point:     1  Conformer:     0
#        Ligand:        11  Surface Point:     1  Conformer:    17
#        BUDE Formal Charge: 0
#        ATOM Count: 47
#        Heavy ATOM Count: 28
@<TRIPOS>MOLECULE
ZINC61303593_1GCZ_R01_S0001_C0000_L00011_S0001_C0017_G0010_E0001
 47 48 0 0 0
SMALL
USER_CHARGES
@<TRIPOS>ATOM
       1 C1        -0.1708   -2.9625    0.3448 C.3       1 <0>         0.0220 
       2 O1         0.2614   -1.7484    0.9643 O.3       1 <0>        -0.3006 
       3 C2         0.0058   -0.5694    0.3152 C.ar      1 <0>         0.1008 
       4 C3         0.1347   -0.4036   -1.0688 C.ar      1 <0>        -0.1273 
       5 C4        -0.1420    0.8288   -1.6725 C.ar      1 <0>        -0.0284 
       6 C5        -0.5513    1.9062   -0.8871 C.ar      1 <0>        -0.0603 
       7 C6        -0.6815    1.7445    0.4974 C.ar      1 <0>        -0.1775 
       8 C7        -0.4051    0.5128    1.1026 C.ar      1 <0>         0.1359 
       9 O2        -0.5130    0.2901    2.4501 O.3       1 <0>        -0.2949 
      10 C8        -0.0161    1.2951    3.3379 C.3       1 <0>         0.0554 
      11 C9        -0.2339    0.8494    4.7831 C.3       1 <0>        -0.1108 
      12 C10        0.5263   -0.4520    5.0339 C.3       1 <0>        -0.1085 
      13 C11        0.3111   -0.8925    6.4622 C.2       1 <0>         0.4668 
      14 O3        -0.3720   -0.2389    7.1934 O.2       1 <0>        -0.4984 
      15 O4         0.8907   -2.0251    6.9135 O.3       1 <0>        -0.3293 
      16 C12        0.6580   -2.4018    8.2732 C.3       1 <0>         0.0498 
      17 C13        1.2258   -1.3459    9.1913 C.2       1 <0>         0.5168 
      18 O5         0.5247   -0.8573   10.0759 O.2       1 <0>        -0.4913 
      19 N1         2.4849   -0.9439    9.0432 N.am      1 <0>        -0.6701 
      20 C14        3.0185    0.0454    9.9026 C.ar      1 <0>         0.1579 
      21 C15        2.2209    0.6001   10.9106 C.ar      1 <0>        -0.1362 
      22 C16        2.7478    1.5828   11.7574 C.ar      1 <0>        -0.0710 
      23 C17        4.0721    2.0045   11.6015 C.ar      1 <0>        -0.1038 
      24 C18        4.8701    1.4481   10.5948 C.ar      1 <0>        -0.0707 
      25 C19        4.3440    0.4674    9.7454 C.ar      1 <0>        -0.1148 
      26 Br1        4.7862    3.3379   12.7512 Br        1 <0>        -0.0469 
      27 C20       -0.0050    0.9889   -3.1071 C.1       1 <0>         0.2541 
      28 N2         0.1043    1.1178   -4.2547 N.1       1 <0>        -0.4124 
      29 H1         0.3191   -3.0706   -0.6206 H         1 <0>         0.1051 
      30 H2         0.0893   -3.8060    0.9808 H         1 <0>         0.0578 
      31 H3        -1.2493   -2.9329    0.2037 H         1 <0>         0.0579 
      32 H4         0.4471   -1.1987   -1.7296 H         1 <0>         0.1456 
      33 H5        -0.7655    2.8581   -1.3501 H         1 <0>         0.1399 
      34 H6        -1.0018    2.6145    1.0514 H         1 <0>         0.1478 
      35 H7         1.0472    1.4427    3.1608 H         1 <0>         0.0709 
      36 H8        -0.5464    2.2288    3.1631 H         1 <0>         0.0709 
      37 H9         0.1325    1.6188    5.4596 H         1 <0>         0.0878 
      38 H10       -1.2955    0.6880    4.9575 H         1 <0>         0.0877 
      39 H11        0.1603   -1.2225    4.3585 H         1 <0>         0.1149 
      40 H12        1.5883   -0.2917    4.8606 H         1 <0>         0.1150 
      41 H13        1.1428   -3.3548    8.4741 H         1 <0>         0.1060 
      42 H14       -0.4120   -2.4948    8.4465 H         1 <0>         0.1063 
      43 H15        3.0607   -1.3451    8.3168 H         1 <0>         0.4168 
      44 H16        1.2011    0.2661   11.0327 H         1 <0>         0.1372 
      45 H17        2.1348    2.0118   12.5360 H         1 <0>         0.1390 
      46 H18        5.8921    1.7765   10.4756 H         1 <0>         0.1383 
      47 H19        4.9570    0.0329    8.9697 H         1 <0>         0.1486 
@<TRIPOS>BOND
       1        1        2 1        
       2        1       29 1        
       3        1       30 1        
       4        1       31 1        
       5        2        3 1        
       6        3        8 ar       
       7        3        4 ar       
       8        4        5 ar       
       9        4       32 1        
      10        5        6 ar       
      11        5       27 1        
      12        6        7 ar       
      13        6       33 1        
      14        7        8 ar       
      15        7       34 1        
      16        8        9 1        
      17        9       10 1        
      18       10       11 1        
      19       10       35 1        
      20       10       36 1        
      21       11       12 1        
      22       11       37 1        
      23       11       38 1        
      24       12       13 1        
      25       12       39 1        
      26       12       40 1        
      27       13       14 2        
      28       13       15 1        
      29       15       16 1        
      30       16       17 1        
      31       16       41 1        
      32       16       42 1        
      33       17       18 2        
      34       17       19 am       
      35       19       20 1        
      36       19       43 1        
      37       20       25 ar       
      38       20       21 ar       
      39       21       22 ar       
      40       21       44 1        
      41       22       23 ar       
      42       22       45 1        
      43       23       24 ar       
      44       23       26 1        
      45       24       25 ar       
      46       24       46 1        
      47       25       47 1        
      48       27       28 3        

