#        1GCZ_R01_S0001_C0000_L00011_S0001_C0018_G0010_E0001.mol2
#        Tue Jun  6 14:11:52 2017
#        Descriptor:      4    15    31     9     6    15
#        Energy - RMSD - RMSD MassCentre:     -59.0682    999.9999    999.9999
#        Receptor:       1  Surface Point:     1  Conformer:     0
#        Ligand:        11  Surface Point:     1  Conformer:    18
#        BUDE Formal Charge: 0
#        ATOM Count: 47
#        Heavy ATOM Count: 28
@<TRIPOS>MOLECULE
ZINC61303593_1GCZ_R01_S0001_C0000_L00011_S0001_C0018_G0010_E0001
 47 48 0 0 0
SMALL
USER_CHARGES
@<TRIPOS>ATOM
       1 C1         2.4084   -6.5792    4.0225 C.3       1 <0>         0.0220 
       2 O1         2.1349   -5.9550    5.2795 O.3       1 <0>        -0.3006 
       3 C2         1.6130   -6.7297    6.2816 C.ar      1 <0>         0.1008 
       4 C3         2.0308   -8.0395    6.5452 C.ar      1 <0>        -0.1273 
       5 C4         1.4568   -8.7798    7.5856 C.ar      1 <0>        -0.0284 
       6 C5         0.4561   -8.2071    8.3705 C.ar      1 <0>        -0.0603 
       7 C6         0.0356   -6.8975    8.1100 C.ar      1 <0>        -0.1775 
       8 C7         0.6085   -6.1559    7.0701 C.ar      1 <0>         0.1359 
       9 O2         0.2418   -4.8717    6.7645 O.3       1 <0>        -0.2949 
      10 C8         0.0368   -3.9576    7.8450 C.3       1 <0>         0.0554 
      11 C9        -0.3632   -2.5925    7.2871 C.3       1 <0>        -0.1108 
      12 C10        0.7566   -2.0602    6.3943 C.3       1 <0>        -0.1085 
      13 C11        0.3613   -0.7110    5.8429 C.2       1 <0>         0.4668 
      14 O3        -0.6949   -0.2326    6.1322 O.2       1 <0>        -0.4984 
      15 O4         1.2016   -0.0450    5.0227 O.3       1 <0>        -0.3293 
      16 C12        0.7839    1.2290    4.5255 C.3       1 <0>         0.0498 
      17 C13        0.6125    2.1873    5.6799 C.2       1 <0>         0.5168 
      18 O5        -0.4347    2.8203    5.8045 O.2       1 <0>        -0.4913 
      19 N1         1.5946    2.3469    6.5624 N.am      1 <0>        -0.6701 
      20 C14        1.4356    3.2444    7.6447 C.ar      1 <0>         0.1579 
      21 C15        0.2429    3.9635    7.7874 C.ar      1 <0>        -0.1362 
      22 C16        0.0882    4.8554    8.8555 C.ar      1 <0>        -0.0710 
      23 C17        1.1210    5.0221    9.7835 C.ar      1 <0>        -0.1038 
      24 C18        2.3127    4.3014    9.6419 C.ar      1 <0>        -0.0707 
      25 C19        2.4703    3.4112    8.5728 C.ar      1 <0>        -0.1148 
      26 Br1        0.9099    6.2325   11.2328 Br        1 <0>        -0.0469 
      27 C20        1.8975  -10.1358    7.8495 C.1       1 <0>         0.2541 
      28 N2         2.2494  -11.2206    8.0613 N.1       1 <0>        -0.4124 
      29 H1         1.4847   -6.9768    3.6072 H         1 <0>         0.1051 
      30 H2         2.8284   -5.8455    3.3377 H         1 <0>         0.0578 
      31 H3         3.1198   -7.3895    4.1678 H         1 <0>         0.0579 
      32 H4         2.8001   -8.5375    5.9737 H         1 <0>         0.1456 
      33 H5         0.0116   -8.7759    9.1737 H         1 <0>         0.1399 
      34 H6        -0.7420   -6.5096    8.7514 H         1 <0>         0.1478 
      35 H7        -0.7548   -4.3307    8.4913 H         1 <0>         0.0709 
      36 H8         0.9569   -3.8594    8.4173 H         1 <0>         0.0709 
      37 H9        -1.2756   -2.6920    6.7030 H         1 <0>         0.0878 
      38 H10       -0.5316   -1.8995    8.1087 H         1 <0>         0.0877 
      39 H11        1.6695   -1.9595    6.9775 H         1 <0>         0.1149 
      40 H12        0.9255   -2.7520    5.5718 H         1 <0>         0.1150 
      41 H13       -0.1629    1.1215    4.0006 H         1 <0>         0.1060 
      42 H14        1.5364    1.6166    3.8419 H         1 <0>         0.1063 
      43 H15        2.4545    1.8271    6.4601 H         1 <0>         0.4168 
      44 H16       -0.5553    3.8260    7.0730 H         1 <0>         0.1372 
      45 H17       -0.8311    5.4108    8.9681 H         1 <0>         0.1390 
      46 H18        3.1093    4.4330   10.3591 H         1 <0>         0.1383 
      47 H19        3.3865    2.8505    8.4614 H         1 <0>         0.1486 
@<TRIPOS>BOND
       1        1        2 1        
       2        1       29 1        
       3        1       30 1        
       4        1       31 1        
       5        2        3 1        
       6        3        8 ar       
       7        3        4 ar       
       8        4        5 ar       
       9        4       32 1        
      10        5        6 ar       
      11        5       27 1        
      12        6        7 ar       
      13        6       33 1        
      14        7        8 ar       
      15        7       34 1        
      16        8        9 1        
      17        9       10 1        
      18       10       11 1        
      19       10       35 1        
      20       10       36 1        
      21       11       12 1        
      22       11       37 1        
      23       11       38 1        
      24       12       13 1        
      25       12       39 1        
      26       12       40 1        
      27       13       14 2        
      28       13       15 1        
      29       15       16 1        
      30       16       17 1        
      31       16       41 1        
      32       16       42 1        
      33       17       18 2        
      34       17       19 am       
      35       19       20 1        
      36       19       43 1        
      37       20       25 ar       
      38       20       21 ar       
      39       21       22 ar       
      40       21       44 1        
      41       22       23 ar       
      42       22       45 1        
      43       23       24 ar       
      44       23       26 1        
      45       24       25 ar       
      46       24       46 1        
      47       25       47 1        
      48       27       28 3        

