#        1GCZ_R01_S0001_C0000_L00011_S0001_C0019_G0010_E0001.mol2
#        Tue Jun  6 09:58:08 2017
#        Descriptor:     17    24     3    10     6    13
#        Energy - RMSD - RMSD MassCentre:     -72.0753    999.9999    999.9999
#        Receptor:       1  Surface Point:     1  Conformer:     0
#        Ligand:        11  Surface Point:     1  Conformer:    19
#        BUDE Formal Charge: 0
#        ATOM Count: 47
#        Heavy ATOM Count: 28
@<TRIPOS>MOLECULE
ZINC61303593_1GCZ_R01_S0001_C0000_L00011_S0001_C0019_G0010_E0001
 47 48 0 0 0
SMALL
USER_CHARGES
@<TRIPOS>ATOM
       1 C1         3.1739   -6.5698    5.0423 C.3       1 <0>         0.0220 
       2 O1         3.1994   -5.2313    5.5446 O.3       1 <0>        -0.3006 
       3 C2         4.3796   -4.5397    5.4711 C.ar      1 <0>         0.1008 
       4 C3         5.6298   -5.1113    5.7354 C.ar      1 <0>        -0.1273 
       5 C4         6.8008   -4.3496    5.6426 C.ar      1 <0>        -0.0284 
       6 C5         6.7229   -3.0043    5.2824 C.ar      1 <0>        -0.0603 
       7 C6         5.4745   -2.4290    5.0174 C.ar      1 <0>        -0.1775 
       8 C7         4.3027   -3.1893    5.1097 C.ar      1 <0>         0.1359 
       9 O2         3.0524   -2.6863    4.8635 O.3       1 <0>        -0.2949 
      10 C8         2.7351   -1.3931    5.3850 C.3       1 <0>         0.0554 
      11 C9         2.8448   -1.4184    6.9088 C.3       1 <0>        -0.1108 
      12 C10        1.8545   -2.4361    7.4730 C.3       1 <0>        -0.1085 
      13 C11        0.4496   -2.0354    7.0905 C.2       1 <0>         0.4668 
      14 O3        -0.2208   -2.7669    6.4244 O.2       1 <0>        -0.4984 
      15 O4        -0.0492   -0.8502    7.5012 O.3       1 <0>        -0.3293 
      16 C12       -1.3843   -0.5141    7.1143 C.3       1 <0>         0.0498 
      17 C13       -1.4593   -0.4063    5.6100 C.2       1 <0>         0.5168 
      18 O5        -2.3214   -1.0273    4.9904 O.2       1 <0>        -0.4913 
      19 N1        -0.5927    0.3608    4.9547 N.am      1 <0>        -0.6701 
      20 C14       -0.6617    0.4629    3.5451 C.ar      1 <0>         0.1579 
      21 C15       -1.6441   -0.2426    2.8401 C.ar      1 <0>        -0.1362 
      22 C16       -1.7086   -0.1453    1.4449 C.ar      1 <0>        -0.0710 
      23 C17       -0.7974    0.6620    0.7566 C.ar      1 <0>        -0.1038 
      24 C18        0.1836    1.3691    1.4620 C.ar      1 <0>        -0.0707 
      25 C19        0.2513    1.2707    2.8569 C.ar      1 <0>        -0.1148 
      26 Br1       -0.8858    0.7936   -1.1368 Br        1 <0>        -0.0469 
      27 C20        8.0904   -4.9521    5.9186 C.1       1 <0>         0.2541 
      28 N2         9.1225   -5.4336    6.1392 N.1       1 <0>        -0.4124 
      29 H1         3.8826   -7.1791    5.5994 H         1 <0>         0.1051 
      30 H2         2.1729   -6.9805    5.1567 H         1 <0>         0.0578 
      31 H3         3.4470   -6.5664    3.9891 H         1 <0>         0.0579 
      32 H4         5.7553   -6.1459    6.0183 H         1 <0>         0.1456 
      33 H5         7.6247   -2.4144    5.2101 H         1 <0>         0.1399 
      34 H6         5.4791   -1.3844    4.7438 H         1 <0>         0.1478 
      35 H7         3.4308   -0.6590    4.9842 H         1 <0>         0.0709 
      36 H8         1.7200   -1.1253    5.0995 H         1 <0>         0.0709 
      37 H9         3.8558   -1.6998    7.1957 H         1 <0>         0.0878 
      38 H10        2.6158   -0.4318    7.3061 H         1 <0>         0.0877 
      39 H11        2.0737   -3.4207    7.0656 H         1 <0>         0.1149 
      40 H12        1.9403   -2.4642    8.5572 H         1 <0>         0.1150 
      41 H13       -1.6626    0.4386    7.5599 H         1 <0>         0.1060 
      42 H14       -2.0675   -1.2886    7.4563 H         1 <0>         0.1063 
      43 H15        0.1152    0.8708    5.4635 H         1 <0>         0.4168 
      44 H16       -2.3508   -0.8588    3.3761 H         1 <0>         0.1372 
      45 H17       -2.4658   -0.6880    0.8988 H         1 <0>         0.1390 
      46 H18        0.8870    1.9908    0.9279 H         1 <0>         0.1383 
      47 H19        1.0041    1.8171    3.4055 H         1 <0>         0.1486 
@<TRIPOS>BOND
       1        1        2 1        
       2        1       29 1        
       3        1       30 1        
       4        1       31 1        
       5        2        3 1        
       6        3        8 ar       
       7        3        4 ar       
       8        4        5 ar       
       9        4       32 1        
      10        5        6 ar       
      11        5       27 1        
      12        6        7 ar       
      13        6       33 1        
      14        7        8 ar       
      15        7       34 1        
      16        8        9 1        
      17        9       10 1        
      18       10       11 1        
      19       10       35 1        
      20       10       36 1        
      21       11       12 1        
      22       11       37 1        
      23       11       38 1        
      24       12       13 1        
      25       12       39 1        
      26       12       40 1        
      27       13       14 2        
      28       13       15 1        
      29       15       16 1        
      30       16       17 1        
      31       16       41 1        
      32       16       42 1        
      33       17       18 2        
      34       17       19 am       
      35       19       20 1        
      36       19       43 1        
      37       20       25 ar       
      38       20       21 ar       
      39       21       22 ar       
      40       21       44 1        
      41       22       23 ar       
      42       22       45 1        
      43       23       24 ar       
      44       23       26 1        
      45       24       25 ar       
      46       24       46 1        
      47       25       47 1        
      48       27       28 3        

