#        1GCZ_R01_S0001_C0000_L00011_S0001_C0019_G0010_E0001.mol2
#        Tue Jun  6 14:11:54 2017
#        Descriptor:      1    30    24    10     7    13
#        Energy - RMSD - RMSD MassCentre:     -68.6681    999.9999    999.9999
#        Receptor:       1  Surface Point:     1  Conformer:     0
#        Ligand:        11  Surface Point:     1  Conformer:    19
#        BUDE Formal Charge: 0
#        ATOM Count: 47
#        Heavy ATOM Count: 28
@<TRIPOS>MOLECULE
ZINC61303593_1GCZ_R01_S0001_C0000_L00011_S0001_C0019_G0010_E0001
 47 48 0 0 0
SMALL
USER_CHARGES
@<TRIPOS>ATOM
       1 C1         4.0888   -5.1572    5.7857 C.3       1 <0>         0.0220 
       2 O1         3.7651   -3.8009    6.1025 O.3       1 <0>        -0.3006 
       3 C2         4.7731   -2.8740    6.0643 C.ar      1 <0>         0.1008 
       4 C3         6.0679   -3.1181    6.5369 C.ar      1 <0>        -0.1273 
       5 C4         7.0548   -2.1275    6.4692 C.ar      1 <0>        -0.0284 
       6 C5         6.7461   -0.8811    5.9245 C.ar      1 <0>        -0.0603 
       7 C6         5.4524   -0.6331    5.4507 C.ar      1 <0>        -0.1775 
       8 C7         4.4644   -1.6226    5.5177 C.ar      1 <0>         0.1359 
       9 O2         3.1814   -1.4429    5.0720 O.3       1 <0>        -0.2949 
      10 C8         2.5327   -0.2055    5.3767 C.3       1 <0>         0.0554 
      11 C9         2.4385   -0.0406    6.8928 C.3       1 <0>        -0.1108 
      12 C10        1.6165   -1.1876    7.4788 C.3       1 <0>        -0.1085 
      13 C11        0.2237   -1.1566    6.8961 C.2       1 <0>         0.4668 
      14 O3        -0.1823   -2.0876    6.2664 O.2       1 <0>        -0.4984 
      15 O4        -0.5633   -0.0764    7.0866 O.3       1 <0>        -0.3293 
      16 C12       -1.8743   -0.0927    6.5159 C.3       1 <0>         0.0498 
      17 C13       -1.7665   -0.1677    5.0116 C.2       1 <0>         0.5168 
      18 O5        -2.3875   -1.0298    4.3919 O.2       1 <0>        -0.4913 
      19 N1        -0.9994    0.6989    4.3562 N.am      1 <0>        -0.6701 
      20 C14       -0.8973    0.6299    2.9467 C.ar      1 <0>         0.1579 
      21 C15       -1.6056   -0.3502    2.2414 C.ar      1 <0>        -0.1362 
      22 C16       -1.5001   -0.4213    0.8471 C.ar      1 <0>        -0.0710 
      23 C17       -0.6939    0.4908    0.1586 C.ar      1 <0>        -0.1038 
      24 C18        0.0127    1.4722    0.8639 C.ar      1 <0>        -0.0707 
      25 C19       -0.0895    1.5429    2.2585 C.ar      1 <0>        -0.1148 
      26 Br1       -0.5514    0.3936   -1.7335 Br        1 <0>        -0.0469 
      27 C20        8.3927   -2.3914    6.9619 C.1       1 <0>         0.2541 
      28 N2         9.4633   -2.6020    7.3558 N.1       1 <0>        -0.4124 
      29 H1         4.8275   -5.5279    6.4933 H         1 <0>         0.1051 
      30 H2         3.1900   -5.7675    5.8457 H         1 <0>         0.0578 
      31 H3         4.4947   -5.2065    4.7775 H         1 <0>         0.0579 
      32 H4         6.3681   -4.0613    6.9688 H         1 <0>         0.1456 
      33 H5         7.5056   -0.1151    5.8710 H         1 <0>         0.1399 
      34 H6         5.2748    0.3500    5.0407 H         1 <0>         0.1478 
      35 H7         3.1068    0.6184    4.9580 H         1 <0>         0.0709 
      36 H8         1.5321   -0.2051    4.9496 H         1 <0>         0.0709 
      37 H9         3.4378   -0.0550    7.3227 H         1 <0>         0.0878 
      38 H10        1.9563    0.9064    7.1261 H         1 <0>         0.0877 
      39 H11        2.0901   -2.1360    7.2343 H         1 <0>         0.1149 
      40 H12        1.5591   -1.0783    8.5598 H         1 <0>         0.1150 
      41 H13       -2.4037    0.8156    6.7960 H         1 <0>         0.1060 
      42 H14       -2.4198   -0.9592    6.8834 H         1 <0>         0.1063 
      43 H15       -0.4895    1.4068    4.8651 H         1 <0>         0.4168 
      44 H16       -2.2333   -1.0478    2.7761 H         1 <0>         0.1372 
      45 H17       -2.0459   -1.1761    0.3006 H         1 <0>         0.1390 
      46 H18        0.6357    2.1745    0.3300 H         1 <0>         0.1383 
      47 H19        0.4510    2.3005    2.8064 H         1 <0>         0.1486 
@<TRIPOS>BOND
       1        1        2 1        
       2        1       29 1        
       3        1       30 1        
       4        1       31 1        
       5        2        3 1        
       6        3        8 ar       
       7        3        4 ar       
       8        4        5 ar       
       9        4       32 1        
      10        5        6 ar       
      11        5       27 1        
      12        6        7 ar       
      13        6       33 1        
      14        7        8 ar       
      15        7       34 1        
      16        8        9 1        
      17        9       10 1        
      18       10       11 1        
      19       10       35 1        
      20       10       36 1        
      21       11       12 1        
      22       11       37 1        
      23       11       38 1        
      24       12       13 1        
      25       12       39 1        
      26       12       40 1        
      27       13       14 2        
      28       13       15 1        
      29       15       16 1        
      30       16       17 1        
      31       16       41 1        
      32       16       42 1        
      33       17       18 2        
      34       17       19 am       
      35       19       20 1        
      36       19       43 1        
      37       20       25 ar       
      38       20       21 ar       
      39       21       22 ar       
      40       21       44 1        
      41       22       23 ar       
      42       22       45 1        
      43       23       24 ar       
      44       23       26 1        
      45       24       25 ar       
      46       24       46 1        
      47       25       47 1        
      48       27       28 3        

