#        1GCZ_R01_S0001_C0000_L00011_S0001_C0020_G0010_E0001.mol2
#        Tue Jun  6 09:58:09 2017
#        Descriptor:      6     3    23     7     6    12
#        Energy - RMSD - RMSD MassCentre:     -75.1758    999.9999    999.9999
#        Receptor:       1  Surface Point:     1  Conformer:     0
#        Ligand:        11  Surface Point:     1  Conformer:    20
#        BUDE Formal Charge: 0
#        ATOM Count: 47
#        Heavy ATOM Count: 28
@<TRIPOS>MOLECULE
ZINC61303593_1GCZ_R01_S0001_C0000_L00011_S0001_C0020_G0010_E0001
 47 48 0 0 0
SMALL
USER_CHARGES
@<TRIPOS>ATOM
       1 C1        -1.2031   -3.4096    0.2964 C.3       1 <0>         0.0220 
       2 O1        -0.4425   -2.2836    0.7416 O.3       1 <0>        -0.3006 
       3 C2        -0.4116   -1.1720   -0.0585 C.ar      1 <0>         0.1008 
       4 C3        -0.3067   -1.2247   -1.4535 C.ar      1 <0>        -0.1273 
       5 C4        -0.2804   -0.0506   -2.2155 C.ar      1 <0>        -0.0284 
       6 C5        -0.3594    1.1879   -1.5790 C.ar      1 <0>        -0.0603 
       7 C6        -0.4643    1.2447   -0.1842 C.ar      1 <0>        -0.1775 
       8 C7        -0.4909    0.0716    0.5793 C.ar      1 <0>         0.1359 
       9 O2        -0.5919    0.0596    1.9455 O.3       1 <0>        -0.2949 
      10 C8        -1.5203    0.9589    2.5575 C.3       1 <0>         0.0554 
      11 C9        -1.4738    0.7831    4.0745 C.3       1 <0>        -0.1108 
      12 C10       -1.8642   -0.6502    4.4324 C.3       1 <0>        -0.1085 
      13 C11       -1.8183   -0.8239    5.9318 C.2       1 <0>         0.4668 
      14 O3        -2.8081   -1.1254    6.5297 O.2       1 <0>        -0.4984 
      15 O4        -0.6584   -0.6385    6.5971 O.3       1 <0>        -0.3293 
      16 C12       -0.6638   -0.8142    8.0163 C.3       1 <0>         0.0498 
      17 C13       -1.0130   -2.2463    8.3440 C.2       1 <0>         0.5168 
      18 O5        -1.9152   -2.4928    9.1429 O.2       1 <0>        -0.4913 
      19 N1        -0.3447   -3.2417    7.7683 N.am      1 <0>        -0.6701 
      20 C14       -0.6708   -4.5841    8.0743 C.ar      1 <0>         0.1579 
      21 C15       -1.6988   -4.8646    8.9822 C.ar      1 <0>        -0.1362 
      22 C16       -2.0174   -6.1931    9.2886 C.ar      1 <0>        -0.0710 
      23 C17       -1.3147   -7.2392    8.6823 C.ar      1 <0>        -0.1038 
      24 C18       -0.2882   -6.9586    7.7728 C.ar      1 <0>        -0.0707 
      25 C19        0.0337   -5.6306    7.4674 C.ar      1 <0>        -0.1148 
      26 Br1       -1.7480   -9.0417    9.0985 Br        1 <0>        -0.0469 
      27 C20       -0.1714   -0.1171   -3.6599 C.1       1 <0>         0.2541 
      28 N2        -0.0844   -0.1696   -4.8154 N.1       1 <0>        -0.4124 
      29 H1        -0.8025   -3.7657   -0.6503 H         1 <0>         0.1051 
      30 H2        -1.1429   -4.2033    1.0381 H         1 <0>         0.0578 
      31 H3        -2.2421   -3.1148    0.1634 H         1 <0>         0.0579 
      32 H4        -0.2422   -2.1518   -2.0037 H         1 <0>         0.1456 
      33 H5        -0.3392    2.0952   -2.1645 H         1 <0>         0.1399 
      34 H6        -0.5218    2.2319    0.2502 H         1 <0>         0.1478 
      35 H7        -1.2553    1.9830    2.3034 H         1 <0>         0.0709 
      36 H8        -2.5246    0.7438    2.1986 H         1 <0>         0.0709 
      37 H9        -0.4666    0.9842    4.4330 H         1 <0>         0.0878 
      38 H10       -2.1707    1.4756    4.5420 H         1 <0>         0.0877 
      39 H11       -2.8717   -0.8523    4.0753 H         1 <0>         0.1149 
      40 H12       -1.1675   -1.3437    3.9661 H         1 <0>         0.1150 
      41 H13       -1.4018   -0.1506    8.4617 H         1 <0>         0.1060 
      42 H14        0.3214   -0.5816    8.4148 H         1 <0>         0.1063 
      43 H15        0.3961   -3.0392    7.1123 H         1 <0>         0.4168 
      44 H16       -2.2443   -4.0539    9.4423 H         1 <0>         0.1372 
      45 H17       -2.8104   -6.4121    9.9881 H         1 <0>         0.1390 
      46 H18        0.2540   -7.7682    7.3070 H         1 <0>         0.1383 
      47 H19        0.8225   -5.4094    6.7638 H         1 <0>         0.1486 
@<TRIPOS>BOND
       1        1        2 1        
       2        1       29 1        
       3        1       30 1        
       4        1       31 1        
       5        2        3 1        
       6        3        8 ar       
       7        3        4 ar       
       8        4        5 ar       
       9        4       32 1        
      10        5        6 ar       
      11        5       27 1        
      12        6        7 ar       
      13        6       33 1        
      14        7        8 ar       
      15        7       34 1        
      16        8        9 1        
      17        9       10 1        
      18       10       11 1        
      19       10       35 1        
      20       10       36 1        
      21       11       12 1        
      22       11       37 1        
      23       11       38 1        
      24       12       13 1        
      25       12       39 1        
      26       12       40 1        
      27       13       14 2        
      28       13       15 1        
      29       15       16 1        
      30       16       17 1        
      31       16       41 1        
      32       16       42 1        
      33       17       18 2        
      34       17       19 am       
      35       19       20 1        
      36       19       43 1        
      37       20       25 ar       
      38       20       21 ar       
      39       21       22 ar       
      40       21       44 1        
      41       22       23 ar       
      42       22       45 1        
      43       23       24 ar       
      44       23       26 1        
      45       24       25 ar       
      46       24       46 1        
      47       25       47 1        
      48       27       28 3        

