#        1GCZ_R01_S0001_C0000_L00011_S0001_C0020_G0010_E0001.mol2
#        Tue Jun  6 14:11:56 2017
#        Descriptor:      9    17    16    14     1    12
#        Energy - RMSD - RMSD MassCentre:     -57.8199    999.9999    999.9999
#        Receptor:       1  Surface Point:     1  Conformer:     0
#        Ligand:        11  Surface Point:     1  Conformer:    20
#        BUDE Formal Charge: 0
#        ATOM Count: 47
#        Heavy ATOM Count: 28
@<TRIPOS>MOLECULE
ZINC61303593_1GCZ_R01_S0001_C0000_L00011_S0001_C0020_G0010_E0001
 47 48 0 0 0
SMALL
USER_CHARGES
@<TRIPOS>ATOM
       1 C1         3.9045   -8.9576    6.7426 C.3       1 <0>         0.0220 
       2 O1         3.3891   -8.0753    5.7423 O.3       1 <0>        -0.3006 
       3 C2         2.3885   -7.2112    6.1014 C.ar      1 <0>         0.1008 
       4 C3         1.3238   -7.5646    6.9387 C.ar      1 <0>        -0.1273 
       5 C4         0.3314   -6.6337    7.2685 C.ar      1 <0>        -0.0284 
       6 C5         0.4025   -5.3380    6.7575 C.ar      1 <0>        -0.0603 
       7 C6         1.4656   -4.9809    5.9197 C.ar      1 <0>        -0.1775 
       8 C7         2.4589   -5.9104    5.5890 C.ar      1 <0>         0.1359 
       9 O2         3.5234   -5.6237    4.7756 O.3       1 <0>        -0.2949 
      10 C8         4.1893   -4.3715    4.9585 C.3       1 <0>         0.0554 
      11 C9         5.3373   -4.2551    3.9570 C.3       1 <0>        -0.1108 
      12 C10        6.3366   -5.3862    4.1953 C.3       1 <0>        -0.1085 
      13 C11        7.4712   -5.2711    3.2055 C.2       1 <0>         0.4668 
      14 O3         8.5903   -5.1135    3.5940 O.2       1 <0>        -0.4984 
      15 O4         7.2212   -5.3464    1.8811 O.3       1 <0>        -0.3293 
      16 C12        8.3274   -5.2321    0.9821 C.3       1 <0>         0.0498 
      17 C13        9.2802   -6.3813    1.2093 C.2       1 <0>         0.5168 
      18 O5        10.4763   -6.1622    1.3943 O.2       1 <0>        -0.4913 
      19 N1         8.8258   -7.6313    1.2094 N.am      1 <0>        -0.6701 
      20 C14        9.7174   -8.7092    1.4221 C.ar      1 <0>         0.1579 
      21 C15       11.0784   -8.4595    1.6344 C.ar      1 <0>        -0.1362 
      22 C16       11.9610   -9.5269    1.8396 C.ar      1 <0>        -0.0710 
      23 C17       11.4823  -10.8409    1.8403 C.ar      1 <0>        -0.1038 
      24 C18       10.1209  -11.0902    1.6301 C.ar      1 <0>        -0.0707 
      25 C19        9.2374  -10.0242    1.4219 C.ar      1 <0>        -0.1148 
      26 Br1       12.6808  -12.2886    2.1191 Br        1 <0>        -0.0469 
      27 C20       -0.7670   -7.0108    8.1368 C.1       1 <0>         0.2541 
      28 N2        -1.6459   -7.3117    8.8314 N.1       1 <0>        -0.4124 
      29 H1         3.1053   -9.6008    7.1046 H         1 <0>         0.1051 
      30 H2         4.6963   -9.5682    6.3136 H         1 <0>         0.0578 
      31 H3         4.3037   -8.3737    7.5694 H         1 <0>         0.0579 
      32 H4         1.2134   -8.5506    7.3653 H         1 <0>         0.1456 
      33 H5        -0.3618   -4.6180    7.0103 H         1 <0>         0.1399 
      34 H6         1.4656   -3.9640    5.5559 H         1 <0>         0.1478 
      35 H7         3.4845   -3.5584    4.7974 H         1 <0>         0.0709 
      36 H8         4.5844   -4.3146    5.9706 H         1 <0>         0.0709 
      37 H9         4.9451   -4.3259    2.9447 H         1 <0>         0.0878 
      38 H10        5.8369   -3.2973    4.0867 H         1 <0>         0.0877 
      39 H11        6.7303   -5.3160    5.2071 H         1 <0>         0.1149 
      40 H12        5.8383   -6.3446    4.0651 H         1 <0>         0.1150 
      41 H13        8.8449   -4.2920    1.1607 H         1 <0>         0.1060 
      42 H14        7.9661   -5.2588   -0.0437 H         1 <0>         0.1063 
      43 H15        7.8436   -7.8112    1.0575 H         1 <0>         0.4168 
      44 H16       11.4428   -7.4429    1.6410 H         1 <0>         0.1372 
      45 H17       13.0113   -9.3369    2.0042 H         1 <0>         0.1390 
      46 H18        9.7540  -12.1060    1.6297 H         1 <0>         0.1383 
      47 H19        8.1858  -10.2116    1.2628 H         1 <0>         0.1486 
@<TRIPOS>BOND
       1        1        2 1        
       2        1       29 1        
       3        1       30 1        
       4        1       31 1        
       5        2        3 1        
       6        3        8 ar       
       7        3        4 ar       
       8        4        5 ar       
       9        4       32 1        
      10        5        6 ar       
      11        5       27 1        
      12        6        7 ar       
      13        6       33 1        
      14        7        8 ar       
      15        7       34 1        
      16        8        9 1        
      17        9       10 1        
      18       10       11 1        
      19       10       35 1        
      20       10       36 1        
      21       11       12 1        
      22       11       37 1        
      23       11       38 1        
      24       12       13 1        
      25       12       39 1        
      26       12       40 1        
      27       13       14 2        
      28       13       15 1        
      29       15       16 1        
      30       16       17 1        
      31       16       41 1        
      32       16       42 1        
      33       17       18 2        
      34       17       19 am       
      35       19       20 1        
      36       19       43 1        
      37       20       25 ar       
      38       20       21 ar       
      39       21       22 ar       
      40       21       44 1        
      41       22       23 ar       
      42       22       45 1        
      43       23       24 ar       
      44       23       26 1        
      45       24       25 ar       
      46       24       46 1        
      47       25       47 1        
      48       27       28 3        

