#        1GCZ_R01_S0001_C0000_L00011_S0001_C0021_G0010_E0001.mol2
#        Tue Jun  6 09:58:10 2017
#        Descriptor:     18     3    23    10     8    14
#        Energy - RMSD - RMSD MassCentre:     -62.1976    999.9999    999.9999
#        Receptor:       1  Surface Point:     1  Conformer:     0
#        Ligand:        11  Surface Point:     1  Conformer:    21
#        BUDE Formal Charge: 0
#        ATOM Count: 47
#        Heavy ATOM Count: 28
@<TRIPOS>MOLECULE
ZINC61303593_1GCZ_R01_S0001_C0000_L00011_S0001_C0021_G0010_E0001
 47 48 0 0 0
SMALL
USER_CHARGES
@<TRIPOS>ATOM
       1 C1         4.3392   -3.8729    4.6606 C.3       1 <0>         0.0220 
       2 O1         4.1291   -2.4607    4.7390 O.3       1 <0>        -0.3006 
       3 C2         5.0173   -1.7187    5.4719 C.ar      1 <0>         0.1008 
       4 C3         6.3999   -1.9378    5.4658 C.ar      1 <0>        -0.1273 
       5 C4         7.2555   -1.1434    6.2382 C.ar      1 <0>        -0.0284 
       6 C5         6.7257   -0.1204    7.0244 C.ar      1 <0>        -0.0603 
       7 C6         5.3436    0.1020    7.0333 C.ar      1 <0>        -0.1775 
       8 C7         4.4867   -0.6915    6.2615 C.ar      1 <0>         0.1359 
       9 O2         3.1273   -0.5251    6.2265 O.3       1 <0>        -0.2949 
      10 C8         2.6165    0.8084    6.1522 C.3       1 <0>         0.0554 
      11 C9         3.1173    1.4742    4.8713 C.3       1 <0>        -0.1108 
      12 C10        2.6198    0.6857    3.6606 C.3       1 <0>        -0.1085 
      13 C11        1.1098    0.6799    3.6506 C.2       1 <0>         0.4668 
      14 O3         0.5150   -0.3545    3.7159 O.2       1 <0>        -0.4984 
      15 O4         0.4314    1.8441    3.5680 O.3       1 <0>        -0.3293 
      16 C12       -0.9975    1.7887    3.5618 C.3       1 <0>         0.0498 
      17 C13       -1.4835    1.2096    4.8690 C.2       1 <0>         0.5168 
      18 O5        -2.2741    0.2673    4.8690 O.2       1 <0>        -0.4913 
      19 N1        -1.0563    1.7186    6.0210 N.am      1 <0>        -0.6701 
      20 C14       -1.5107    1.1771    7.2467 C.ar      1 <0>         0.1579 
      21 C15       -2.4092    0.1035    7.2466 C.ar      1 <0>        -0.1362 
      22 C16       -2.8626   -0.4285    8.4597 C.ar      1 <0>        -0.0710 
      23 C17       -2.4124    0.1069    9.6707 C.ar      1 <0>        -0.1038 
      24 C18       -1.5123    1.1790    9.6706 C.ar      1 <0>        -0.0707 
      25 C19       -1.0601    1.7141    8.4584 C.ar      1 <0>        -0.1148 
      26 Br1       -3.0281   -0.6160   11.3164 Br        1 <0>        -0.0469 
      27 C20        8.6860   -1.3795    6.2241 C.1       1 <0>         0.2541 
      28 N2         9.8306   -1.5679    6.2132 N.1       1 <0>        -0.4124 
      29 H1         4.2941   -4.3017    5.6595 H         1 <0>         0.1051 
      30 H2         3.5668   -4.3199    4.0381 H         1 <0>         0.0578 
      31 H3         5.3163   -4.0699    4.2245 H         1 <0>         0.0579 
      32 H4         6.8696   -2.7131    4.8787 H         1 <0>         0.1456 
      33 H5         7.3835    0.4940    7.6214 H         1 <0>         0.1399 
      34 H6         4.9942    0.9080    7.6614 H         1 <0>         0.1478 
      35 H7         1.5289    0.7810    6.1446 H         1 <0>         0.0709 
      36 H8         2.9596    1.3774    7.0137 H         1 <0>         0.0709 
      37 H9         2.7395    2.4932    4.8197 H         1 <0>         0.0878 
      38 H10        4.2051    1.4896    4.8711 H         1 <0>         0.0877 
      39 H11        2.9861    1.1514    2.7482 H         1 <0>         0.1149 
      40 H12        2.9854   -0.3374    3.7182 H         1 <0>         0.1150 
      41 H13       -1.3332    1.1597    2.7401 H         1 <0>         0.1060 
      42 H14       -1.3994    2.7922    3.4389 H         1 <0>         0.1063 
      43 H15       -0.4071    2.4924    6.0210 H         1 <0>         0.4168 
      44 H16       -2.7484   -0.3122    6.3092 H         1 <0>         0.1372 
      45 H17       -3.5552   -1.2571    8.4623 H         1 <0>         0.1390 
      46 H18       -1.1672    1.5916   10.6072 H         1 <0>         0.1383 
      47 H19       -0.3630    2.5390    8.4535 H         1 <0>         0.1486 
@<TRIPOS>BOND
       1        1        2 1        
       2        1       29 1        
       3        1       30 1        
       4        1       31 1        
       5        2        3 1        
       6        3        8 ar       
       7        3        4 ar       
       8        4        5 ar       
       9        4       32 1        
      10        5        6 ar       
      11        5       27 1        
      12        6        7 ar       
      13        6       33 1        
      14        7        8 ar       
      15        7       34 1        
      16        8        9 1        
      17        9       10 1        
      18       10       11 1        
      19       10       35 1        
      20       10       36 1        
      21       11       12 1        
      22       11       37 1        
      23       11       38 1        
      24       12       13 1        
      25       12       39 1        
      26       12       40 1        
      27       13       14 2        
      28       13       15 1        
      29       15       16 1        
      30       16       17 1        
      31       16       41 1        
      32       16       42 1        
      33       17       18 2        
      34       17       19 am       
      35       19       20 1        
      36       19       43 1        
      37       20       25 ar       
      38       20       21 ar       
      39       21       22 ar       
      40       21       44 1        
      41       22       23 ar       
      42       22       45 1        
      43       23       24 ar       
      44       23       26 1        
      45       24       25 ar       
      46       24       46 1        
      47       25       47 1        
      48       27       28 3        

