#        1GCZ_R01_S0001_C0000_L00011_S0001_C0021_G0010_E0001.mol2
#        Tue Jun  6 14:11:58 2017
#        Descriptor:      1    12     3    10     8    14
#        Energy - RMSD - RMSD MassCentre:     -60.3445    999.9999    999.9999
#        Receptor:       1  Surface Point:     1  Conformer:     0
#        Ligand:        11  Surface Point:     1  Conformer:    21
#        BUDE Formal Charge: 0
#        ATOM Count: 47
#        Heavy ATOM Count: 28
@<TRIPOS>MOLECULE
ZINC61303593_1GCZ_R01_S0001_C0000_L00011_S0001_C0021_G0010_E0001
 47 48 0 0 0
SMALL
USER_CHARGES
@<TRIPOS>ATOM
       1 C1         3.1741   -4.5700    5.9577 C.3       1 <0>         0.0220 
       2 O1         3.1996   -3.2315    5.4554 O.3       1 <0>        -0.3006 
       3 C2         4.3798   -2.5399    5.5289 C.ar      1 <0>         0.1008 
       4 C3         5.6301   -3.1115    5.2647 C.ar      1 <0>        -0.1273 
       5 C4         6.8010   -2.3498    5.3575 C.ar      1 <0>        -0.0284 
       6 C5         6.7231   -1.0046    5.7176 C.ar      1 <0>        -0.0603 
       7 C6         5.4747   -0.4293    5.9827 C.ar      1 <0>        -0.1775 
       8 C7         4.3029   -1.1895    5.8903 C.ar      1 <0>         0.1359 
       9 O2         3.0526   -0.6865    6.1365 O.3       1 <0>        -0.2949 
      10 C8         2.7352    0.6066    5.6151 C.3       1 <0>         0.0554 
      11 C9         2.8450    0.5814    4.0912 C.3       1 <0>        -0.1108 
      12 C10        1.8546   -0.4363    3.5271 C.3       1 <0>        -0.1085 
      13 C11        0.4498   -0.0356    3.9096 C.2       1 <0>         0.4668 
      14 O3        -0.2206   -0.7671    4.5756 O.2       1 <0>        -0.4984 
      15 O4        -0.0490    1.1496    3.4988 O.3       1 <0>        -0.3293 
      16 C12       -1.3841    1.4857    3.8857 C.3       1 <0>         0.0498 
      17 C13       -1.4591    1.5935    5.3900 C.2       1 <0>         0.5168 
      18 O5        -2.3212    0.9725    6.0097 O.2       1 <0>        -0.4913 
      19 N1        -0.5925    2.3606    6.0453 N.am      1 <0>        -0.6701 
      20 C14       -0.6615    2.4627    7.4549 C.ar      1 <0>         0.1579 
      21 C15       -1.6416    1.7544    8.1602 C.ar      1 <0>        -0.1362 
      22 C16       -1.7127    1.8599    9.5545 C.ar      1 <0>        -0.0710 
      23 C17       -0.8007    2.6661   10.2430 C.ar      1 <0>        -0.1038 
      24 C18        0.1808    3.3726    9.5377 C.ar      1 <0>        -0.0707 
      25 C19        0.2515    3.2705    8.1431 C.ar      1 <0>        -0.1148 
      26 Br1       -0.8979    2.8086   12.1351 Br        1 <0>        -0.0469 
      27 C20        8.0906   -2.9524    5.0815 C.1       1 <0>         0.2541 
      28 N2         9.1227   -3.4339    4.8608 N.1       1 <0>        -0.4124 
      29 H1         3.4213   -4.5638    7.0173 H         1 <0>         0.1051 
      30 H2         2.1801   -4.9900    5.8189 H         1 <0>         0.0578 
      31 H3         3.9017   -5.1730    5.4185 H         1 <0>         0.0579 
      32 H4         5.7555   -4.1462    4.9817 H         1 <0>         0.1456 
      33 H5         7.6249   -0.4146    5.7899 H         1 <0>         0.1399 
      34 H6         5.4793    0.6154    6.2563 H         1 <0>         0.1478 
      35 H7         1.7202    0.8744    5.9005 H         1 <0>         0.0709 
      36 H8         3.4310    1.3408    6.0159 H         1 <0>         0.0709 
      37 H9         2.6159    1.5680    3.6940 H         1 <0>         0.0878 
      38 H10        3.8560    0.3000    3.8043 H         1 <0>         0.0877 
      39 H11        1.9405   -0.4644    2.4429 H         1 <0>         0.1149 
      40 H12        2.0739   -1.4210    3.9344 H         1 <0>         0.1150 
      41 H13       -2.0673    0.7112    3.5437 H         1 <0>         0.1060 
      42 H14       -1.6624    2.4384    3.4402 H         1 <0>         0.1063 
      43 H15        0.1154    2.8705    5.5365 H         1 <0>         0.4168 
      44 H16       -2.3392    1.1267    7.6255 H         1 <0>         0.1372 
      45 H17       -2.4675    1.3141   10.1010 H         1 <0>         0.1390 
      46 H18        0.8830    3.9957   10.0715 H         1 <0>         0.1383 
      47 H19        1.0090    3.8110    7.5952 H         1 <0>         0.1486 
@<TRIPOS>BOND
       1        1        2 1        
       2        1       29 1        
       3        1       30 1        
       4        1       31 1        
       5        2        3 1        
       6        3        8 ar       
       7        3        4 ar       
       8        4        5 ar       
       9        4       32 1        
      10        5        6 ar       
      11        5       27 1        
      12        6        7 ar       
      13        6       33 1        
      14        7        8 ar       
      15        7       34 1        
      16        8        9 1        
      17        9       10 1        
      18       10       11 1        
      19       10       35 1        
      20       10       36 1        
      21       11       12 1        
      22       11       37 1        
      23       11       38 1        
      24       12       13 1        
      25       12       39 1        
      26       12       40 1        
      27       13       14 2        
      28       13       15 1        
      29       15       16 1        
      30       16       17 1        
      31       16       41 1        
      32       16       42 1        
      33       17       18 2        
      34       17       19 am       
      35       19       20 1        
      36       19       43 1        
      37       20       25 ar       
      38       20       21 ar       
      39       21       22 ar       
      40       21       44 1        
      41       22       23 ar       
      42       22       45 1        
      43       23       24 ar       
      44       23       26 1        
      45       24       25 ar       
      46       24       46 1        
      47       25       47 1        
      48       27       28 3        

