#        1GCZ_R01_S0001_C0000_L00003_S0001_C0014_G0010_E0001.mol2
#        Tue Jun  6 09:54:47 2017
#        Descriptor:     24     7    35     8    10    14
#        Energy - RMSD - RMSD MassCentre:     -67.2654    999.9999    999.9999
#        Receptor:       1  Surface Point:     1  Conformer:     0
#        Ligand:         3  Surface Point:     1  Conformer:    14
#        BUDE Formal Charge: 0
#        ATOM Count: 58
#        Heavy ATOM Count: 30
@<TRIPOS>MOLECULE
ZINC61580633_1GCZ_R01_S0001_C0000_L00003_S0001_C0014_G0010_E0001
 58 59 0 0 0
SMALL
USER_CHARGES
@<TRIPOS>ATOM
       1 C1         0.6868   -0.1660   -0.7992 C.3       1 <0>        -0.1532 
       2 C2        -0.3895   -0.7946    0.0812 C.3       1 <0>        -0.1224 
       3 C3        -1.2399    0.3081    0.7101 C.3       1 <0>        -0.1198 
       4 C4        -0.3534    1.2030    1.5751 C.3       1 <0>         0.0610 
       5 O1         0.1959    0.4339    2.6484 O.3       1 <0>        -0.3878 
       6 C5         1.0374    1.2216    3.4947 C.3       1 <0>         0.0487 
       7 C6         1.5915    0.3461    4.6177 C.3       1 <0>         0.1244 
       8 N1         2.4566    1.1559    5.4875 N.am      1 <0>        -0.7216 
       9 C7         3.6490    1.5542    5.0538 C.2       1 <0>         0.5161 
      10 O2         4.0285    1.2457    3.9254 O.2       1 <0>        -0.5151 
      11 C8         4.5377    2.3861    5.9474 C.3       1 <0>         0.0490 
      12 O3         3.9718    3.6904    6.1001 O.3       1 <0>        -0.3194 
      13 C9         2.7660    3.7914    6.6987 C.2       1 <0>         0.5417 
      14 O4         2.1926    2.7883    7.0906 O.2       1 <0>        -0.5337 
      15 C10        2.1392    5.1197    6.8797 C.2       1 <0>        -0.2559 
      16 C11        2.7518    6.3983    6.4552 C.2       1 <0>        -0.0791 
      17 C12        1.9850    7.4514    6.7472 C.2       1 <0>        -0.2585 
      18 S1         0.4727    6.9944    7.5449 S.3       1 <0>         0.3028 
      19 C13        0.9459    5.2909    7.4648 C.2       1 <0>         0.0893 
      20 N2         0.2105    4.2388    7.9436 N.am      1 <0>        -0.6099 
      21 C14       -0.9694    4.4574    8.5172 C.2       1 <0>         0.5551 
      22 O5        -1.4007    5.6049    8.6177 O.2       1 <0>        -0.4939 
      23 C15       -1.7625    3.3198    9.0338 C.ar      1 <0>        -0.1466 
      24 C16       -2.9975    3.5957    9.6329 C.ar      1 <0>        -0.0772 
      25 C17       -3.7590    2.5702   10.2057 C.ar      1 <0>        -0.1241 
      26 C18       -3.2944    1.2498   10.1991 C.ar      1 <0>        -0.0446 
      27 C19       -2.0854    0.9630    9.5542 C.ar      1 <0>        -0.1261 
      28 C20       -1.3408    1.9871    8.9569 C.ar      1 <0>        -0.0460 
      29 C21       -4.1012    0.1680   10.8768 C.3       1 <0>        -0.0928 
      30 C22       -3.6608    0.0426   12.3324 C.3       1 <0>        -0.1485 
      31 H1         1.3273    0.4688   -0.1904 H         1 <0>         0.0567 
      32 H2         0.2153    0.4321   -1.5760 H         1 <0>         0.0554 
      33 H3         1.2839   -0.9515   -1.2575 H         1 <0>         0.0557 
      34 H4        -1.0230   -1.4396   -0.5242 H         1 <0>         0.0632 
      35 H5         0.0811   -1.3816    0.8672 H         1 <0>         0.0635 
      36 H6        -1.6999    0.9046   -0.0749 H         1 <0>         0.0711 
      37 H7        -2.0155   -0.1392    1.3282 H         1 <0>         0.0704 
      38 H8         0.4546    1.6082    0.9696 H         1 <0>         0.0498 
      39 H9        -0.9475    2.0188    1.9815 H         1 <0>         0.0505 
      40 H10        0.4597    2.0378    3.9234 H         1 <0>         0.0584 
      41 H11        1.8616    1.6271    2.9114 H         1 <0>         0.0702 
      42 H12        2.1701   -0.4700    4.1902 H         1 <0>         0.0872 
      43 H13        0.7682   -0.0592    5.2020 H         1 <0>         0.0805 
      44 H14        2.1460    1.4099    6.4144 H         1 <0>         0.4058 
      45 H15        4.6196    1.9106    6.9225 H         1 <0>         0.1008 
      46 H16        5.5258    2.4704    5.5002 H         1 <0>         0.0999 
      47 H17        3.7078    6.4490    5.9556 H         1 <0>         0.1557 
      48 H18        2.2660    8.4654    6.5038 H         1 <0>         0.1929 
      49 H19        0.5646    3.2965    7.8610 H         1 <0>         0.4317 
      50 H20       -3.3667    4.6103    9.6586 H         1 <0>         0.1287 
      51 H21       -4.7131    2.7941   10.6595 H         1 <0>         0.1326 
      52 H22       -1.7378   -0.0590    9.5206 H         1 <0>         0.1342 
      53 H23       -0.4475    1.6979    8.4234 H         1 <0>         0.1410 
      54 H24       -3.9392   -0.7785   10.3654 H         1 <0>         0.0777 
      55 H25       -5.1575    0.4258   10.8376 H         1 <0>         0.0771 
      56 H26       -3.8350    0.9859   12.8459 H         1 <0>         0.0623 
      57 H27       -2.6012   -0.2013   12.3704 H         1 <0>         0.0572 
      58 H28       -4.2328   -0.7458   12.8170 H         1 <0>         0.0578 
@<TRIPOS>BOND
       1        1        2 1        
       2        1       31 1        
       3        1       32 1        
       4        1       33 1        
       5        2        3 1        
       6        2       34 1        
       7        2       35 1        
       8        3        4 1        
       9        3       36 1        
      10        3       37 1        
      11        4        5 1        
      12        4       38 1        
      13        4       39 1        
      14        5        6 1        
      15        6        7 1        
      16        6       40 1        
      17        6       41 1        
      18        7        8 1        
      19        7       42 1        
      20        7       43 1        
      21        8        9 am       
      22        8       44 1        
      23        9       10 2        
      24        9       11 1        
      25       11       12 1        
      26       11       45 1        
      27       11       46 1        
      28       12       13 1        
      29       13       14 2        
      30       13       15 1        
      31       15       19 2        
      32       15       16 1        
      33       16       17 2        
      34       16       47 1        
      35       17       18 1        
      36       17       48 1        
      37       18       19 1        
      38       19       20 1        
      39       20       21 am       
      40       20       49 1        
      41       21       22 2        
      42       21       23 1        
      43       23       28 ar       
      44       23       24 ar       
      45       24       25 ar       
      46       24       50 1        
      47       25       26 ar       
      48       25       51 1        
      49       26       27 ar       
      50       26       29 1        
      51       27       28 ar       
      52       27       52 1        
      53       28       53 1        
      54       29       30 1        
      55       29       54 1        
      56       29       55 1        
      57       30       56 1        
      58       30       57 1        
      59       30       58 1        

