#        1GCZ_R01_S0001_C0000_L00011_S0001_C0022_G0010_E0001.mol2
#        Tue Jun  6 09:58:10 2017
#        Descriptor:     28     5    12    10     7    14
#        Energy - RMSD - RMSD MassCentre:     -64.1133    999.9999    999.9999
#        Receptor:       1  Surface Point:     1  Conformer:     0
#        Ligand:        11  Surface Point:     1  Conformer:    22
#        BUDE Formal Charge: 0
#        ATOM Count: 47
#        Heavy ATOM Count: 28
@<TRIPOS>MOLECULE
ZINC61303593_1GCZ_R01_S0001_C0000_L00011_S0001_C0022_G0010_E0001
 47 48 0 0 0
SMALL
USER_CHARGES
@<TRIPOS>ATOM
       1 C1         2.5738   -6.6198    5.5856 C.3       1 <0>         0.0220 
       2 O1         2.9390   -5.4647    4.8261 O.3       1 <0>        -0.3006 
       3 C2         4.2629   -5.1149    4.7850 C.ar      1 <0>         0.1008 
       4 C3         5.3054   -6.0417    4.6673 C.ar      1 <0>        -0.1273 
       5 C4         6.6397   -5.6195    4.6308 C.ar      1 <0>        -0.0284 
       6 C5         6.9362   -4.2592    4.7125 C.ar      1 <0>        -0.0603 
       7 C6         5.8965   -3.3293    4.8303 C.ar      1 <0>        -0.1775 
       8 C7         4.5617   -3.7497    4.8669 C.ar      1 <0>         0.1359 
       9 O2         3.5002   -2.8910    4.9806 O.3       1 <0>        -0.2949 
      10 C8         3.6077   -1.8115    5.9123 C.3       1 <0>         0.0554 
      11 C9         2.3244   -0.9827    5.8805 C.3       1 <0>        -0.1108 
      12 C10        1.1405   -1.8633    6.2778 C.3       1 <0>        -0.1085 
      13 C11       -0.1278   -1.0443    6.2463 C.2       1 <0>         0.4668 
      14 O3        -0.7723   -0.9009    7.2424 O.2       1 <0>        -0.4984 
      15 O4        -0.5337   -0.4737    5.0922 O.3       1 <0>        -0.3293 
      16 C12       -1.7409    0.2926    5.1112 C.3       1 <0>         0.0498 
      17 C13       -1.5685    1.4790    6.0292 C.2       1 <0>         0.5168 
      18 O5        -2.3945    1.6983    6.9139 O.2       1 <0>        -0.4913 
      19 N1        -0.5228    2.2874    5.8812 N.am      1 <0>        -0.6701 
      20 C14       -0.3598    3.3996    6.7406 C.ar      1 <0>         0.1579 
      21 C15       -1.2990    3.6480    7.7486 C.ar      1 <0>        -0.1362 
      22 C16       -1.1400    4.7517    8.5953 C.ar      1 <0>        -0.0710 
      23 C17       -0.0398    5.6008    8.4394 C.ar      1 <0>        -0.1038 
      24 C18        0.9004    5.3510    7.4328 C.ar      1 <0>        -0.0707 
      25 C19        0.7414    4.2495    6.5834 C.ar      1 <0>        -0.1148 
      26 Br1        0.1752    7.0981    9.5891 Br        1 <0>        -0.0469 
      27 C20        7.7115   -6.5885    4.5087 C.1       1 <0>         0.2541 
      28 N2         8.5693   -7.3632    4.4111 N.1       1 <0>        -0.4124 
      29 H1         2.8490   -6.4699    6.6275 H         1 <0>         0.1051 
      30 H2         1.4996   -6.7765    5.5125 H         1 <0>         0.0578 
      31 H3         3.0953   -7.4905    5.1937 H         1 <0>         0.0579 
      32 H4         5.1403   -7.1070    4.6000 H         1 <0>         0.1456 
      33 H5         7.9646   -3.9308    4.6846 H         1 <0>         0.1399 
      34 H6         6.1891   -2.2913    4.8893 H         1 <0>         0.1478 
      35 H7         3.7568   -2.2095    6.9139 H         1 <0>         0.0709 
      36 H8         4.4524   -1.1812    5.6424 H         1 <0>         0.0709 
      37 H9         2.4097   -0.1538    6.5799 H         1 <0>         0.0878 
      38 H10        2.1666   -0.5958    4.8760 H         1 <0>         0.0877 
      39 H11        1.0535   -2.6923    5.5787 H         1 <0>         0.1149 
      40 H12        1.2967   -2.2503    7.2825 H         1 <0>         0.1150 
      41 H13       -2.5593   -0.3275    5.4708 H         1 <0>         0.1060 
      42 H14       -1.9649    0.6425    4.1057 H         1 <0>         0.1063 
      43 H15        0.1554    2.1074    5.1547 H         1 <0>         0.4168 
      44 H16       -2.1431    2.9854    7.8707 H         1 <0>         0.1372 
      45 H17       -1.8627    4.9452    9.3740 H         1 <0>         0.1390 
      46 H18        1.7484    6.0091    7.3136 H         1 <0>         0.1383 
      47 H19        1.4661    4.0508    5.8077 H         1 <0>         0.1486 
@<TRIPOS>BOND
       1        1        2 1        
       2        1       29 1        
       3        1       30 1        
       4        1       31 1        
       5        2        3 1        
       6        3        8 ar       
       7        3        4 ar       
       8        4        5 ar       
       9        4       32 1        
      10        5        6 ar       
      11        5       27 1        
      12        6        7 ar       
      13        6       33 1        
      14        7        8 ar       
      15        7       34 1        
      16        8        9 1        
      17        9       10 1        
      18       10       11 1        
      19       10       35 1        
      20       10       36 1        
      21       11       12 1        
      22       11       37 1        
      23       11       38 1        
      24       12       13 1        
      25       12       39 1        
      26       12       40 1        
      27       13       14 2        
      28       13       15 1        
      29       15       16 1        
      30       16       17 1        
      31       16       41 1        
      32       16       42 1        
      33       17       18 2        
      34       17       19 am       
      35       19       20 1        
      36       19       43 1        
      37       20       25 ar       
      38       20       21 ar       
      39       21       22 ar       
      40       21       44 1        
      41       22       23 ar       
      42       22       45 1        
      43       23       24 ar       
      44       23       26 1        
      45       24       25 ar       
      46       24       46 1        
      47       25       47 1        
      48       27       28 3        

