#        1GCZ_R01_S0001_C0000_L00011_S0001_C0022_G0010_E0001.mol2
#        Tue Jun  6 14:12:00 2017
#        Descriptor:      9    17    17    14     2    12
#        Energy - RMSD - RMSD MassCentre:     -59.8219    999.9999    999.9999
#        Receptor:       1  Surface Point:     1  Conformer:     0
#        Ligand:        11  Surface Point:     1  Conformer:    22
#        BUDE Formal Charge: 0
#        ATOM Count: 47
#        Heavy ATOM Count: 28
@<TRIPOS>MOLECULE
ZINC61303593_1GCZ_R01_S0001_C0000_L00011_S0001_C0022_G0010_E0001
 47 48 0 0 0
SMALL
USER_CHARGES
@<TRIPOS>ATOM
       1 C1         2.4345   -2.4091    6.5447 C.3       1 <0>         0.0220 
       2 O1         2.3547   -3.4855    5.6068 O.3       1 <0>        -0.3006 
       3 C2         1.8007   -4.6653    6.0283 C.ar      1 <0>         0.1008 
       4 C3         0.6700   -4.7399    6.8503 C.ar      1 <0>        -0.1273 
       5 C4         0.1519   -5.9786    7.2467 C.ar      1 <0>        -0.0284 
       6 C5         0.7684   -7.1541    6.8186 C.ar      1 <0>        -0.0603 
       7 C6         1.8993   -7.0837    5.9966 C.ar      1 <0>        -0.1775 
       8 C7         2.4187   -5.8460    5.5992 C.ar      1 <0>         0.1359 
       9 O2         3.5208   -5.7096    4.7969 O.3       1 <0>        -0.2949 
      10 C8         4.6459   -6.5542    5.0535 C.3       1 <0>         0.0554 
      11 C9         5.7563   -6.2402    4.0521 C.3       1 <0>        -0.1108 
      12 C10        6.1859   -4.7824    4.2098 C.3       1 <0>        -0.1085 
      13 C11        7.2834   -4.4720    3.2199 C.2       1 <0>         0.4668 
      14 O3         8.3581   -4.1225    3.6084 O.2       1 <0>        -0.4984 
      15 O4         7.0502   -4.5896    1.8955 O.3       1 <0>        -0.3293 
      16 C12        8.1198   -4.2849    0.9966 C.3       1 <0>         0.0498 
      17 C13        9.2577   -5.2512    1.2237 C.2       1 <0>         0.5168 
      18 O5        10.3975   -4.8277    1.4087 O.2       1 <0>        -0.4913 
      19 N1         9.0272   -6.5611    1.2238 N.am      1 <0>        -0.6701 
      20 C14       10.0924   -7.4678    1.4366 C.ar      1 <0>         0.1579 
      21 C15       11.3894   -6.9856    1.6488 C.ar      1 <0>        -0.1362 
      22 C16       12.4439   -7.8835    1.8541 C.ar      1 <0>        -0.0710 
      23 C17       12.2007   -9.2607    1.8547 C.ar      1 <0>        -0.1038 
      24 C18       10.9032   -9.7426    1.6446 C.ar      1 <0>        -0.0707 
      25 C19        9.8481   -8.8463    1.4363 C.ar      1 <0>        -0.1148 
      26 Br1       13.6323  -10.4783    2.1335 Br        1 <0>        -0.0469 
      27 C20       -1.0198   -6.0438    8.0983 C.1       1 <0>         0.2541 
      28 N2        -1.9571   -6.0966    8.7797 N.1       1 <0>        -0.4124 
      29 H1         3.0474   -2.7113    7.3913 H         1 <0>         0.1051 
      30 H2         2.8818   -1.5419    6.0635 H         1 <0>         0.0578 
      31 H3         1.4347   -2.1564    6.8917 H         1 <0>         0.0579 
      32 H4         0.1490   -3.8666    7.2141 H         1 <0>         0.1456 
      33 H5         0.3709   -8.1110    7.1230 H         1 <0>         0.1399 
      34 H6         2.3318   -8.0273    5.6981 H         1 <0>         0.1478 
      35 H7         5.0092   -6.3783    6.0639 H         1 <0>         0.0709 
      36 H8         4.3493   -7.5959    4.9504 H         1 <0>         0.0709 
      37 H9         6.6082   -6.8907    4.2384 H         1 <0>         0.0878 
      38 H10        5.3898   -6.4023    3.0406 H         1 <0>         0.0877 
      39 H11        5.3350   -4.1306    4.0230 H         1 <0>         0.1149 
      40 H12        6.5534   -4.6192    5.2206 H         1 <0>         0.1150 
      41 H13        8.4662   -3.2693    1.1751 H         1 <0>         0.1060 
      42 H14        7.7686   -4.3740   -0.0293 H         1 <0>         0.1063 
      43 H15        8.0912   -6.9088    1.0719 H         1 <0>         0.4168 
      44 H16       11.5717   -5.9211    1.6554 H         1 <0>         0.1372 
      45 H17       13.4452   -7.5141    2.0187 H         1 <0>         0.1390 
      46 H18       10.7183  -10.8066    1.6441 H         1 <0>         0.1383 
      47 H19        8.8450   -9.2133    1.2772 H         1 <0>         0.1486 
@<TRIPOS>BOND
       1        1        2 1        
       2        1       29 1        
       3        1       30 1        
       4        1       31 1        
       5        2        3 1        
       6        3        8 ar       
       7        3        4 ar       
       8        4        5 ar       
       9        4       32 1        
      10        5        6 ar       
      11        5       27 1        
      12        6        7 ar       
      13        6       33 1        
      14        7        8 ar       
      15        7       34 1        
      16        8        9 1        
      17        9       10 1        
      18       10       11 1        
      19       10       35 1        
      20       10       36 1        
      21       11       12 1        
      22       11       37 1        
      23       11       38 1        
      24       12       13 1        
      25       12       39 1        
      26       12       40 1        
      27       13       14 2        
      28       13       15 1        
      29       15       16 1        
      30       16       17 1        
      31       16       41 1        
      32       16       42 1        
      33       17       18 2        
      34       17       19 am       
      35       19       20 1        
      36       19       43 1        
      37       20       25 ar       
      38       20       21 ar       
      39       21       22 ar       
      40       21       44 1        
      41       22       23 ar       
      42       22       45 1        
      43       23       24 ar       
      44       23       26 1        
      45       24       25 ar       
      46       24       46 1        
      47       25       47 1        
      48       27       28 3        

