#        1GCZ_R01_S0001_C0000_L00011_S0001_C0023_G0010_E0001.mol2
#        Tue Jun  6 09:58:11 2017
#        Descriptor:     36    31    30     7    10    13
#        Energy - RMSD - RMSD MassCentre:     -71.2520    999.9999    999.9999
#        Receptor:       1  Surface Point:     1  Conformer:     0
#        Ligand:        11  Surface Point:     1  Conformer:    23
#        BUDE Formal Charge: 0
#        ATOM Count: 47
#        Heavy ATOM Count: 28
@<TRIPOS>MOLECULE
ZINC61303593_1GCZ_R01_S0001_C0000_L00011_S0001_C0023_G0010_E0001
 47 48 0 0 0
SMALL
USER_CHARGES
@<TRIPOS>ATOM
       1 C1        -3.7503    3.9152   11.6891 C.3       1 <0>         0.0220 
       2 O1        -3.3691    3.8648   10.3118 O.3       1 <0>        -0.3006 
       3 C2        -2.0885    4.2259    9.9859 C.ar      1 <0>         0.1008 
       4 C3        -1.4168    5.3072   10.5682 C.ar      1 <0>        -0.1273 
       5 C4        -0.1065    5.6249   10.1911 C.ar      1 <0>        -0.0284 
       6 C5         0.5394    4.8558    9.2234 C.ar      1 <0>        -0.0603 
       7 C6        -0.1289    3.7736    8.6386 C.ar      1 <0>        -0.1775 
       8 C7        -1.4391    3.4546    9.0147 C.ar      1 <0>         0.1359 
       9 O2        -2.1468    2.4099    8.4811 O.3       1 <0>        -0.2949 
      10 C8        -2.0715    2.2009    7.0684 C.3       1 <0>         0.0554 
      11 C9        -2.9278    0.9943    6.6867 C.3       1 <0>        -0.1108 
      12 C10       -2.8473    0.7709    5.1773 C.3       1 <0>        -0.1085 
      13 C11       -1.4148    0.4973    4.7855 C.2       1 <0>         0.4668 
      14 O3        -0.5588    0.4832    5.6192 O.2       1 <0>        -0.4984 
      15 O4        -1.1010    0.2686    3.4926 O.3       1 <0>        -0.3293 
      16 C12        0.2686    0.0143    3.1697 C.3       1 <0>         0.0498 
      17 C13        0.4003   -0.2138    1.6828 C.2       1 <0>         0.5168 
      18 O5         0.9782   -1.2148    1.2622 O.2       1 <0>        -0.4913 
      19 N1        -0.1089    0.6683    0.8276 N.am      1 <0>        -0.6701 
      20 C14        0.0136    0.4560   -0.5660 C.ar      1 <0>         0.1579 
      21 C15        0.6698   -0.6842   -1.0447 C.ar      1 <0>        -0.1362 
      22 C16        0.7954   -0.8911   -2.4237 C.ar      1 <0>        -0.0710 
      23 C17        0.2590    0.0365   -3.3224 C.ar      1 <0>        -0.1038 
      24 C18       -0.3991    1.1755   -2.8435 C.ar      1 <0>        -0.0707 
      25 C19       -0.5230    1.3854   -1.4649 C.ar      1 <0>        -0.1148 
      26 Br1        0.4297   -0.2452   -5.1936 Br        1 <0>        -0.0469 
      27 C20        0.5796    6.7473   10.8010 C.1       1 <0>         0.2541 
      28 N2         1.1290    7.6451   11.2885 N.1       1 <0>        -0.4124 
      29 H1        -3.6528    4.9354   12.0547 H         1 <0>         0.1051 
      30 H2        -4.7834    3.5899   11.7910 H         1 <0>         0.0578 
      31 H3        -3.1040    3.2586   12.2678 H         1 <0>         0.0579 
      32 H4        -1.8626    5.9395   11.3217 H         1 <0>         0.1456 
      33 H5         1.5502    5.0987    8.9306 H         1 <0>         0.1399 
      34 H6         0.4232    3.2165    7.8962 H         1 <0>         0.1478 
      35 H7        -2.4390    3.0841    6.5502 H         1 <0>         0.0709 
      36 H8        -1.0380    2.0160    6.7831 H         1 <0>         0.0709 
      37 H9        -2.5608    0.1101    7.2036 H         1 <0>         0.0878 
      38 H10       -3.9619    1.1782    6.9707 H         1 <0>         0.0877 
      39 H11       -3.4666   -0.0803    4.9025 H         1 <0>         0.1149 
      40 H12       -3.2009    1.6597    4.6590 H         1 <0>         0.1150 
      41 H13        0.6094   -0.8704    3.7033 H         1 <0>         0.1060 
      42 H14        0.8751    0.8696    3.4598 H         1 <0>         0.1063 
      43 H15       -0.5835    1.4902    1.1730 H         1 <0>         0.4168 
      44 H16        1.0758   -1.4021   -0.3473 H         1 <0>         0.1372 
      45 H17        1.3006   -1.7701   -2.7955 H         1 <0>         0.1390 
      46 H18       -0.8111    1.8911   -3.5397 H         1 <0>         0.1383 
      47 H19       -1.0328    2.2609   -1.0909 H         1 <0>         0.1486 
@<TRIPOS>BOND
       1        1        2 1        
       2        1       29 1        
       3        1       30 1        
       4        1       31 1        
       5        2        3 1        
       6        3        8 ar       
       7        3        4 ar       
       8        4        5 ar       
       9        4       32 1        
      10        5        6 ar       
      11        5       27 1        
      12        6        7 ar       
      13        6       33 1        
      14        7        8 ar       
      15        7       34 1        
      16        8        9 1        
      17        9       10 1        
      18       10       11 1        
      19       10       35 1        
      20       10       36 1        
      21       11       12 1        
      22       11       37 1        
      23       11       38 1        
      24       12       13 1        
      25       12       39 1        
      26       12       40 1        
      27       13       14 2        
      28       13       15 1        
      29       15       16 1        
      30       16       17 1        
      31       16       41 1        
      32       16       42 1        
      33       17       18 2        
      34       17       19 am       
      35       19       20 1        
      36       19       43 1        
      37       20       25 ar       
      38       20       21 ar       
      39       21       22 ar       
      40       21       44 1        
      41       22       23 ar       
      42       22       45 1        
      43       23       24 ar       
      44       23       26 1        
      45       24       25 ar       
      46       24       46 1        
      47       25       47 1        
      48       27       28 3        

