#        1GCZ_R01_S0001_C0000_L00011_S0001_C0023_G0010_E0001.mol2
#        Tue Jun  6 14:12:03 2017
#        Descriptor:      4    36    36    13     8    14
#        Energy - RMSD - RMSD MassCentre:     -51.3741    999.9999    999.9999
#        Receptor:       1  Surface Point:     1  Conformer:     0
#        Ligand:        11  Surface Point:     1  Conformer:    23
#        BUDE Formal Charge: 0
#        ATOM Count: 47
#        Heavy ATOM Count: 28
@<TRIPOS>MOLECULE
ZINC61303593_1GCZ_R01_S0001_C0000_L00011_S0001_C0023_G0010_E0001
 47 48 0 0 0
SMALL
USER_CHARGES
@<TRIPOS>ATOM
       1 C1        -2.0742   -2.3610    6.5980 C.3       1 <0>         0.0220 
       2 O1        -0.8686   -1.6736    6.2533 O.3       1 <0>        -0.3006 
       3 C2        -0.4083   -0.7124    7.1140 C.ar      1 <0>         0.1008 
       4 C3        -1.2405    0.2025    7.7697 C.ar      1 <0>        -0.1273 
       5 C4        -0.7073    1.1621    8.6385 C.ar      1 <0>        -0.0284 
       6 C5         0.6697    1.2089    8.8548 C.ar      1 <0>        -0.0603 
       7 C6         1.5053    0.2957    8.2009 C.ar      1 <0>        -0.1775 
       8 C7         0.9737   -0.6646    7.3318 C.ar      1 <0>         0.1359 
       9 O2         1.7366   -1.5849    6.6626 O.3       1 <0>        -0.2949 
      10 C8         2.9593   -1.1391    6.0701 C.3       1 <0>         0.0554 
      11 C9         3.6482   -2.3153    5.3796 C.3       1 <0>        -0.1108 
      12 C10        4.9547   -1.8389    4.7465 C.3       1 <0>        -0.1085 
      13 C11        5.8675   -1.3008    5.8224 C.2       1 <0>         0.4668 
      14 O3         5.5118   -1.2996    6.9633 O.2       1 <0>        -0.4984 
      15 O4         7.0861   -0.8208    5.4953 O.3       1 <0>        -0.3293 
      16 C12        7.9152   -0.3219    6.5482 C.3       1 <0>         0.0498 
      17 C13        9.2235    0.1628    5.9706 C.2       1 <0>         0.5168 
      18 O5        10.2887   -0.2325    6.4417 O.2       1 <0>        -0.4913 
      19 N1         9.2240    1.0177    4.9517 N.am      1 <0>        -0.6701 
      20 C14       10.4491    1.4728    4.4094 C.ar      1 <0>         0.1579 
      21 C15       11.6614    1.0214    4.9445 C.ar      1 <0>        -0.1362 
      22 C16       12.8733    1.4761    4.4109 C.ar      1 <0>        -0.0710 
      23 C17       12.8730    2.3745    3.3391 C.ar      1 <0>        -0.1038 
      24 C18       11.6606    2.8241    2.8027 C.ar      1 <0>        -0.0707 
      25 C19       10.4478    2.3726    3.3370 C.ar      1 <0>        -0.1148 
      26 Br1       14.5181    2.9909    2.6155 Br        1 <0>        -0.0469 
      27 C20       -1.5789    2.1049    9.3124 C.1       1 <0>         0.2541 
      28 N2        -2.2755    2.8594    9.8517 N.1       1 <0>        -0.4124 
      29 H1        -2.8908   -1.6455    6.6703 H         1 <0>         0.1051 
      30 H2        -2.3032   -3.0974    5.8307 H         1 <0>         0.0578 
      31 H3        -1.9443   -2.8619    7.5550 H         1 <0>         0.0579 
      32 H4        -2.3130    0.2170    7.6436 H         1 <0>         0.1456 
      33 H5         1.0837    1.9482    9.5245 H         1 <0>         0.1399 
      34 H6         2.5616    0.3819    8.4087 H         1 <0>         0.1478 
      35 H7         2.7465   -0.3634    5.3375 H         1 <0>         0.0709 
      36 H8         3.6129   -0.7396    6.8427 H         1 <0>         0.0709 
      37 H9         3.8624   -3.0915    6.1113 H         1 <0>         0.0878 
      38 H10        2.9959   -2.7152    4.6061 H         1 <0>         0.0877 
      39 H11        5.4400   -2.6728    4.2438 H         1 <0>         0.1149 
      40 H12        4.7433   -1.0528    4.0247 H         1 <0>         0.1150 
      41 H13        8.1085   -1.1162    7.2659 H         1 <0>         0.1060 
      42 H14        7.4117    0.5037    7.0468 H         1 <0>         0.1063 
      43 H15        8.3493    1.3423    4.5649 H         1 <0>         0.4168 
      44 H16       11.6573    0.3215    5.7671 H         1 <0>         0.1372 
      45 H17       13.8098    1.1290    4.8215 H         1 <0>         0.1390 
      46 H18       11.6631    3.5190    1.9759 H         1 <0>         0.1383 
      47 H19        9.5101    2.7141    2.9242 H         1 <0>         0.1486 
@<TRIPOS>BOND
       1        1        2 1        
       2        1       29 1        
       3        1       30 1        
       4        1       31 1        
       5        2        3 1        
       6        3        8 ar       
       7        3        4 ar       
       8        4        5 ar       
       9        4       32 1        
      10        5        6 ar       
      11        5       27 1        
      12        6        7 ar       
      13        6       33 1        
      14        7        8 ar       
      15        7       34 1        
      16        8        9 1        
      17        9       10 1        
      18       10       11 1        
      19       10       35 1        
      20       10       36 1        
      21       11       12 1        
      22       11       37 1        
      23       11       38 1        
      24       12       13 1        
      25       12       39 1        
      26       12       40 1        
      27       13       14 2        
      28       13       15 1        
      29       15       16 1        
      30       16       17 1        
      31       16       41 1        
      32       16       42 1        
      33       17       18 2        
      34       17       19 am       
      35       19       20 1        
      36       19       43 1        
      37       20       25 ar       
      38       20       21 ar       
      39       21       22 ar       
      40       21       44 1        
      41       22       23 ar       
      42       22       45 1        
      43       23       24 ar       
      44       23       26 1        
      45       24       25 ar       
      46       24       46 1        
      47       25       47 1        
      48       27       28 3        

