#        1GCZ_R01_S0001_C0000_L00011_S0001_C0024_G0010_E0001.mol2
#        Tue Jun  6 14:12:05 2017
#        Descriptor:      1    30    29     7     9    13
#        Energy - RMSD - RMSD MassCentre:     -70.8849    999.9999    999.9999
#        Receptor:       1  Surface Point:     1  Conformer:     0
#        Ligand:        11  Surface Point:     1  Conformer:    24
#        BUDE Formal Charge: 0
#        ATOM Count: 47
#        Heavy ATOM Count: 28
@<TRIPOS>MOLECULE
ZINC61303593_1GCZ_R01_S0001_C0000_L00011_S0001_C0024_G0010_E0001
 47 48 0 0 0
SMALL
USER_CHARGES
@<TRIPOS>ATOM
       1 C1        -0.5649    2.9014   12.2229 C.3       1 <0>         0.0220 
       2 O1        -0.7473    2.8830   10.8048 O.3       1 <0>        -0.3006 
       3 C2        -1.9230    2.3789   10.3146 C.ar      1 <0>         0.1008 
       4 C3        -3.1728    2.6243   10.8956 C.ar      1 <0>        -0.1273 
       5 C4        -4.3389    2.0790   10.3455 C.ar      1 <0>        -0.0284 
       6 C5        -4.2568    1.2811    9.2046 C.ar      1 <0>        -0.0603 
       7 C6        -3.0089    1.0333    8.6206 C.ar      1 <0>        -0.1775 
       8 C7        -1.8418    1.5779    9.1694 C.ar      1 <0>         0.1359 
       9 O2        -0.5922    1.3734    8.6462 O.3       1 <0>        -0.2949 
      10 C8        -0.4399    1.4440    7.2261 C.3       1 <0>         0.0554 
      11 C9         1.0208    1.1878    6.8581 C.3       1 <0>        -0.1108 
      12 C10        1.1836    1.2632    5.3407 C.3       1 <0>        -0.1085 
      13 C11        0.3229    0.2068    4.6899 C.2       1 <0>         0.4668 
      14 O3        -0.3430   -0.5213    5.3641 O.2       1 <0>        -0.4984 
      15 O4         0.3057    0.0848    3.3455 O.3       1 <0>        -0.3293 
      16 C12       -0.5246   -0.9300    2.7748 C.3       1 <0>         0.0498 
      17 C13       -0.3977   -0.8956    1.2705 C.2       1 <0>         0.5168 
      18 O5        -0.1365   -1.9255    0.6508 O.2       1 <0>        -0.4913 
      19 N1        -0.5686    0.2490    0.6152 N.am      1 <0>        -0.6701 
      20 C14       -0.4501    0.2829   -0.7944 C.ar      1 <0>         0.1579 
      21 C15       -0.1545   -0.8897   -1.4997 C.ar      1 <0>        -0.1362 
      22 C16       -0.0322   -0.8546   -2.8940 C.ar      1 <0>        -0.0710 
      23 C17       -0.2127    0.3493   -3.5825 C.ar      1 <0>        -0.1038 
      24 C18       -0.5104    1.5213   -2.8772 C.ar      1 <0>        -0.0707 
      25 C19       -0.6302    1.4886   -1.4826 C.ar      1 <0>        -0.1148 
      26 Br1       -0.0467    0.3959   -5.4746 Br        1 <0>        -0.0469 
      27 C20       -5.6281    2.3399   10.9558 C.1       1 <0>         0.2541 
      28 N2        -6.6598    2.5482   11.4434 N.1       1 <0>        -0.4124 
      29 H1        -0.6067    1.8842   12.6065 H         1 <0>         0.1051 
      30 H2         0.4032    3.3389   12.4578 H         1 <0>         0.0578 
      31 H3        -1.3528    3.4954   12.6816 H         1 <0>         0.0579 
      32 H4        -3.3014    3.2331   11.7784 H         1 <0>         0.1456 
      33 H5        -5.1549    0.8592    8.7781 H         1 <0>         0.1399 
      34 H6        -3.0099    0.4087    7.7396 H         1 <0>         0.1478 
      35 H7        -1.0691    0.6915    6.7554 H         1 <0>         0.0709 
      36 H8        -0.7330    2.4322    6.8778 H         1 <0>         0.0709 
      37 H9         1.6512    1.9402    7.3276 H         1 <0>         0.0878 
      38 H10        1.3150    0.1995    7.2050 H         1 <0>         0.0877 
      39 H11        0.8765    2.2465    4.9907 H         1 <0>         0.1149 
      40 H12        2.2256    1.0934    5.0782 H         1 <0>         0.1150 
      41 H13       -1.5606   -0.7517    3.0549 H         1 <0>         0.1060 
      42 H14       -0.2114   -1.9049    3.1423 H         1 <0>         0.1063 
      43 H15       -0.7831    1.0947    1.1240 H         1 <0>         0.4168 
      44 H16       -0.0237   -1.8189   -0.9650 H         1 <0>         0.1372 
      45 H17        0.1951   -1.7578   -3.4405 H         1 <0>         0.1390 
      46 H18       -0.6479    2.4500   -3.4110 H         1 <0>         0.1383 
      47 H19       -0.8631    2.3895   -0.9347 H         1 <0>         0.1486 
@<TRIPOS>BOND
       1        1        2 1        
       2        1       29 1        
       3        1       30 1        
       4        1       31 1        
       5        2        3 1        
       6        3        8 ar       
       7        3        4 ar       
       8        4        5 ar       
       9        4       32 1        
      10        5        6 ar       
      11        5       27 1        
      12        6        7 ar       
      13        6       33 1        
      14        7        8 ar       
      15        7       34 1        
      16        8        9 1        
      17        9       10 1        
      18       10       11 1        
      19       10       35 1        
      20       10       36 1        
      21       11       12 1        
      22       11       37 1        
      23       11       38 1        
      24       12       13 1        
      25       12       39 1        
      26       12       40 1        
      27       13       14 2        
      28       13       15 1        
      29       15       16 1        
      30       16       17 1        
      31       16       41 1        
      32       16       42 1        
      33       17       18 2        
      34       17       19 am       
      35       19       20 1        
      36       19       43 1        
      37       20       25 ar       
      38       20       21 ar       
      39       21       22 ar       
      40       21       44 1        
      41       22       23 ar       
      42       22       45 1        
      43       23       24 ar       
      44       23       26 1        
      45       24       25 ar       
      46       24       46 1        
      47       25       47 1        
      48       27       28 3        

