#        1GCZ_R01_S0001_C0000_L00011_S0001_C0025_G0010_E0001.mol2
#        Tue Jun  6 09:58:13 2017
#        Descriptor:      1    19     6     8     4    15
#        Energy - RMSD - RMSD MassCentre:     -68.4272    999.9999    999.9999
#        Receptor:       1  Surface Point:     1  Conformer:     0
#        Ligand:        11  Surface Point:     1  Conformer:    25
#        BUDE Formal Charge: 0
#        ATOM Count: 47
#        Heavy ATOM Count: 28
@<TRIPOS>MOLECULE
ZINC61303593_1GCZ_R01_S0001_C0000_L00011_S0001_C0025_G0010_E0001
 47 48 0 0 0
SMALL
USER_CHARGES
@<TRIPOS>ATOM
       1 C1         2.0372    1.1222    6.1097 C.3       1 <0>         0.0220 
       2 O1         1.1150    0.0357    6.2284 O.3       1 <0>        -0.3006 
       3 C2         0.1780   -0.1227    5.2417 C.ar      1 <0>         0.1008 
       4 C3         0.4514    0.0493    3.8795 C.ar      1 <0>        -0.1273 
       5 C4        -0.5516   -0.1275    2.9189 C.ar      1 <0>        -0.0284 
       6 C5        -1.8396   -0.4792    3.3219 C.ar      1 <0>        -0.0603 
       7 C6        -2.1169   -0.6521    4.6831 C.ar      1 <0>        -0.1775 
       8 C7        -1.1152   -0.4758    5.6449 C.ar      1 <0>         0.1359 
       9 O2        -1.3219   -0.6298    6.9905 O.3       1 <0>        -0.2949 
      10 C8        -2.1054   -1.7443    7.4254 C.3       1 <0>         0.0554 
      11 C9        -1.4277   -3.0428    6.9905 C.3       1 <0>        -0.1108 
      12 C10       -0.0428   -3.1323    7.6296 C.3       1 <0>        -0.1085 
      13 C11        0.6270   -4.4157    7.1998 C.2       1 <0>         0.4668 
      14 O3         0.0599   -5.1701    6.4667 O.2       1 <0>        -0.4984 
      15 O4         1.8671   -4.7109    7.6439 O.3       1 <0>        -0.3293 
      16 C12        2.4607   -5.9374    7.2099 C.3       1 <0>         0.0498 
      17 C13        1.6386   -7.0994    7.7140 C.2       1 <0>         0.5168 
      18 O5         1.2592   -7.9702    6.9325 O.2       1 <0>        -0.4913 
      19 N1         1.3247   -7.1813    9.0038 N.am      1 <0>        -0.6701 
      20 C14        0.5544   -8.2695    9.4777 C.ar      1 <0>         0.1579 
      21 C15        0.1241   -9.2615    8.5885 C.ar      1 <0>        -0.1362 
      22 C16       -0.6425  -10.3353    9.0571 C.ar      1 <0>        -0.0710 
      23 C17       -0.9716  -10.4211   10.4136 C.ar      1 <0>        -0.1038 
      24 C18       -0.5394   -9.4302   11.3030 C.ar      1 <0>        -0.0707 
      25 C19        0.2248   -8.3542   10.8356 C.ar      1 <0>        -0.1148 
      26 Br1       -2.0117  -11.8788   11.0486 Br        1 <0>        -0.0469 
      27 C20       -0.2571    0.0533    1.5107 C.1       1 <0>         0.2541 
      28 N2        -0.0222    0.1977    0.3840 N.1       1 <0>        -0.4124 
      29 H1         1.4896    2.0623    6.0998 H         1 <0>         0.1051 
      30 H2         2.7222    1.1096    6.9547 H         1 <0>         0.0578 
      31 H3         2.6000    1.0199    5.1841 H         1 <0>         0.0579 
      32 H4         1.4273    0.3212    3.5054 H         1 <0>         0.1456 
      33 H5        -2.6152   -0.6163    2.5829 H         1 <0>         0.1399 
      34 H6        -3.1319   -0.9242    4.9325 H         1 <0>         0.1478 
      35 H7        -2.1919   -1.7265    8.5098 H         1 <0>         0.0709 
      36 H8        -3.0968   -1.6868    6.9811 H         1 <0>         0.0709 
      37 H9        -2.0293   -3.8911    7.3099 H         1 <0>         0.0878 
      38 H10       -1.3281   -3.0555    5.9072 H         1 <0>         0.0877 
      39 H11        0.5601   -2.2848    7.3103 H         1 <0>         0.1149 
      40 H12       -0.1411   -3.1205    8.7130 H         1 <0>         0.1150 
      41 H13        3.4719   -6.0111    7.6045 H         1 <0>         0.1060 
      42 H14        2.4923   -5.9609    6.1227 H         1 <0>         0.1063 
      43 H15        1.6362   -6.4662    9.6454 H         1 <0>         0.4168 
      44 H16        0.3871   -9.1956    7.5430 H         1 <0>         0.1372 
      45 H17       -0.9751  -11.1021    8.3733 H         1 <0>         0.1390 
      46 H18       -0.7961   -9.4980   12.3498 H         1 <0>         0.1383 
      47 H19        0.5634   -7.5892   11.5186 H         1 <0>         0.1486 
@<TRIPOS>BOND
       1        1        2 1        
       2        1       29 1        
       3        1       30 1        
       4        1       31 1        
       5        2        3 1        
       6        3        8 ar       
       7        3        4 ar       
       8        4        5 ar       
       9        4       32 1        
      10        5        6 ar       
      11        5       27 1        
      12        6        7 ar       
      13        6       33 1        
      14        7        8 ar       
      15        7       34 1        
      16        8        9 1        
      17        9       10 1        
      18       10       11 1        
      19       10       35 1        
      20       10       36 1        
      21       11       12 1        
      22       11       37 1        
      23       11       38 1        
      24       12       13 1        
      25       12       39 1        
      26       12       40 1        
      27       13       14 2        
      28       13       15 1        
      29       15       16 1        
      30       16       17 1        
      31       16       41 1        
      32       16       42 1        
      33       17       18 2        
      34       17       19 am       
      35       19       20 1        
      36       19       43 1        
      37       20       25 ar       
      38       20       21 ar       
      39       21       22 ar       
      40       21       44 1        
      41       22       23 ar       
      42       22       45 1        
      43       23       24 ar       
      44       23       26 1        
      45       24       25 ar       
      46       24       46 1        
      47       25       47 1        
      48       27       28 3        

