#        1GCZ_R01_S0001_C0000_L00011_S0001_C0025_G0010_E0001.mol2
#        Tue Jun  6 14:12:07 2017
#        Descriptor:     34    17     5     9     4    15
#        Energy - RMSD - RMSD MassCentre:     -64.5215    999.9999    999.9999
#        Receptor:       1  Surface Point:     1  Conformer:     0
#        Ligand:        11  Surface Point:     1  Conformer:    25
#        BUDE Formal Charge: 0
#        ATOM Count: 47
#        Heavy ATOM Count: 28
@<TRIPOS>MOLECULE
ZINC61303593_1GCZ_R01_S0001_C0000_L00011_S0001_C0025_G0010_E0001
 47 48 0 0 0
SMALL
USER_CHARGES
@<TRIPOS>ATOM
       1 C1         2.9434    0.8085    4.9308 C.3       1 <0>         0.0220 
       2 O1         2.1002   -0.1327    5.6001 O.3       1 <0>        -0.3006 
       3 C2         0.7535   -0.0770    5.3549 C.ar      1 <0>         0.1008 
       4 C3         0.2061    0.1496    4.0865 C.ar      1 <0>        -0.1273 
       5 C4        -1.1808    0.1954    3.9018 C.ar      1 <0>        -0.0284 
       6 C5        -2.0295    0.0131    4.9934 C.ar      1 <0>        -0.0603 
       7 C6        -1.4859   -0.2138    6.2634 C.ar      1 <0>        -0.1775 
       8 C7        -0.0993   -0.2598    6.4499 C.ar      1 <0>         0.1359 
       9 O2         0.4944   -0.4776    7.6653 O.3       1 <0>        -0.2949 
      10 C8        -0.0589   -1.4900    8.5102 C.3       1 <0>         0.0554 
      11 C9         0.0145   -2.8409    7.8001 C.3       1 <0>        -0.1108 
      12 C10        1.4748   -3.1834    7.5087 C.3       1 <0>        -0.1085 
      13 C11        1.5474   -4.5185    6.8069 C.2       1 <0>         0.4668 
      14 O3         0.5453   -5.1243    6.5684 O.2       1 <0>        -0.4984 
      15 O4         2.7451   -5.0280    6.4487 O.3       1 <0>        -0.3293 
      16 C12        2.7639   -6.2952    5.7864 C.3       1 <0>         0.0498 
      17 C13        2.2124   -7.3538    6.7114 C.2       1 <0>         0.5168 
      18 O5         1.3125   -8.0990    6.3272 O.2       1 <0>        -0.4913 
      19 N1         2.7000   -7.4803    7.9423 N.am      1 <0>        -0.6701 
      20 C14        2.1843   -8.4717    8.8102 C.ar      1 <0>         0.1579 
      21 C15        1.1612   -9.3210    8.3722 C.ar      1 <0>        -0.1362 
      22 C16        0.6477  -10.2983    9.2333 C.ar      1 <0>        -0.0710 
      23 C17        1.1615  -10.4312   10.5272 C.ar      1 <0>        -0.1038 
      24 C18        2.1860   -9.5832   10.9642 C.ar      1 <0>        -0.0707 
      25 C19        2.6987   -8.6034   10.1055 C.ar      1 <0>        -0.1148 
      26 Br1        0.4640  -11.7579   11.6948 Br        1 <0>        -0.0469 
      27 C20       -1.7367    0.4307    2.5834 C.1       1 <0>         0.2541 
      28 N2        -2.1821    0.6191    1.5291 N.1       1 <0>        -0.4124 
      29 H1         2.6558    1.8184    5.2154 H         1 <0>         0.1051 
      30 H2         3.9789    0.6322    5.2140 H         1 <0>         0.0578 
      31 H3         2.8358    0.6897    3.8547 H         1 <0>         0.0579 
      32 H4         0.8100    0.2980    3.2035 H         1 <0>         0.1456 
      33 H5        -3.0998    0.0478    4.8537 H         1 <0>         0.1399 
      34 H6        -2.1934   -0.3475    7.0684 H         1 <0>         0.1478 
      35 H7         0.5066   -1.5376    9.4384 H         1 <0>         0.0709 
      36 H8        -1.0977   -1.2523    8.7296 H         1 <0>         0.0709 
      37 H9        -0.4175   -3.6100    8.4368 H         1 <0>         0.0878 
      38 H10       -0.5390   -2.7903    6.8649 H         1 <0>         0.0877 
      39 H11        1.9079   -2.4154    6.8713 H         1 <0>         0.1149 
      40 H12        2.0294   -3.2350    8.4432 H         1 <0>         0.1150 
      41 H13        3.7868   -6.5484    5.5156 H         1 <0>         0.1060 
      42 H14        2.1522   -6.2449    4.8883 H         1 <0>         0.1063 
      43 H15        3.4390   -6.8683    8.2577 H         1 <0>         0.4168 
      44 H16        0.7726   -9.2203    7.3696 H         1 <0>         0.1372 
      45 H17       -0.1410  -10.9551    8.8976 H         1 <0>         0.1390 
      46 H18        2.5800   -9.6869   11.9644 H         1 <0>         0.1383 
      47 H19        3.4914   -7.9493   10.4371 H         1 <0>         0.1486 
@<TRIPOS>BOND
       1        1        2 1        
       2        1       29 1        
       3        1       30 1        
       4        1       31 1        
       5        2        3 1        
       6        3        8 ar       
       7        3        4 ar       
       8        4        5 ar       
       9        4       32 1        
      10        5        6 ar       
      11        5       27 1        
      12        6        7 ar       
      13        6       33 1        
      14        7        8 ar       
      15        7       34 1        
      16        8        9 1        
      17        9       10 1        
      18       10       11 1        
      19       10       35 1        
      20       10       36 1        
      21       11       12 1        
      22       11       37 1        
      23       11       38 1        
      24       12       13 1        
      25       12       39 1        
      26       12       40 1        
      27       13       14 2        
      28       13       15 1        
      29       15       16 1        
      30       16       17 1        
      31       16       41 1        
      32       16       42 1        
      33       17       18 2        
      34       17       19 am       
      35       19       20 1        
      36       19       43 1        
      37       20       25 ar       
      38       20       21 ar       
      39       21       22 ar       
      40       21       44 1        
      41       22       23 ar       
      42       22       45 1        
      43       23       24 ar       
      44       23       26 1        
      45       24       25 ar       
      46       24       46 1        
      47       25       47 1        
      48       27       28 3        

