#        1GCZ_R01_S0001_C0000_L00011_S0001_C0026_G0010_E0001.mol2
#        Tue Jun  6 09:58:14 2017
#        Descriptor:     34    21    18    10     4    15
#        Energy - RMSD - RMSD MassCentre:     -57.4666    999.9999    999.9999
#        Receptor:       1  Surface Point:     1  Conformer:     0
#        Ligand:        11  Surface Point:     1  Conformer:    26
#        BUDE Formal Charge: 0
#        ATOM Count: 47
#        Heavy ATOM Count: 28
@<TRIPOS>MOLECULE
ZINC61303593_1GCZ_R01_S0001_C0000_L00011_S0001_C0026_G0010_E0001
 47 48 0 0 0
SMALL
USER_CHARGES
@<TRIPOS>ATOM
       1 C1         1.0303   -9.9888    8.2621 C.3       1 <0>         0.0220 
       2 O1         0.6556   -8.6094    8.2229 O.3       1 <0>        -0.3006 
       3 C2         1.4396   -7.7509    7.4982 C.ar      1 <0>         0.1008 
       4 C3         2.8383   -7.8068    7.4816 C.ar      1 <0>        -0.1273 
       5 C4         3.5832   -6.8991    6.7192 C.ar      1 <0>        -0.0284 
       6 C5         2.9257   -5.9263    5.9663 C.ar      1 <0>        -0.0603 
       7 C6         1.5271   -5.8673    5.9805 C.ar      1 <0>        -0.1775 
       8 C7         0.7807   -6.7742    6.7422 C.ar      1 <0>         0.1359 
       9 O2        -0.5881   -6.7690    6.7984 O.3       1 <0>        -0.2949 
      10 C8        -1.2500   -5.5066    6.9135 C.3       1 <0>         0.0554 
      11 C9        -0.8107   -4.8180    8.2048 C.3       1 <0>        -0.1108 
      12 C10       -1.5179   -3.4692    8.3278 C.3       1 <0>        -0.1085 
      13 C11       -1.1409   -2.5956    7.1552 C.2       1 <0>         0.4668 
      14 O3        -1.9848   -2.2042    6.4049 O.2       1 <0>        -0.4984 
      15 O4         0.1502   -2.2564    6.9543 O.3       1 <0>        -0.3293 
      16 C12        0.4590   -1.4274    5.8306 C.3       1 <0>         0.0498 
      17 C13        1.9462   -1.1696    5.7902 C.2       1 <0>         0.5168 
      18 O5         2.5797   -1.3799    4.7571 O.2       1 <0>        -0.4913 
      19 N1         2.5715   -0.7147    6.8723 N.am      1 <0>        -0.6701 
      20 C14        3.9651   -0.4725    6.8359 C.ar      1 <0>         0.1579 
      21 C15        4.6857   -0.7103    5.6594 C.ar      1 <0>        -0.1362 
      22 C16        6.0656   -0.4755    5.6256 C.ar      1 <0>        -0.0710 
      23 C17        6.7223    0.0035    6.7637 C.ar      1 <0>        -0.1038 
      24 C18        6.0012    0.2433    7.9393 C.ar      1 <0>        -0.0707 
      25 C19        4.6217    0.0063    7.9758 C.ar      1 <0>        -0.1148 
      26 Br1        8.5948    0.3220    6.7167 Br        1 <0>        -0.0469 
      27 C20        5.0317   -6.9663    6.7094 C.1       1 <0>         0.2541 
      28 N2         6.1904   -7.0195    6.7012 N.1       1 <0>        -0.4124 
      29 H1         2.0196  -10.0826    8.7052 H         1 <0>         0.1051 
      30 H2         0.3100  -10.5427    8.8605 H         1 <0>         0.0578 
      31 H3         1.0460  -10.3886    7.2504 H         1 <0>         0.0579 
      32 H4         3.4044   -8.5357    8.0425 H         1 <0>         0.1456 
      33 H5         3.4980   -5.2249    5.3774 H         1 <0>         0.1399 
      34 H6         1.0762   -5.0928    5.3778 H         1 <0>         0.1478 
      35 H7        -0.9890   -4.8807    6.0627 H         1 <0>         0.0709 
      36 H8        -2.3267   -5.6614    6.9339 H         1 <0>         0.0709 
      37 H9        -1.0718   -5.4427    9.0565 H         1 <0>         0.0878 
      38 H10        0.2657   -4.6619    8.1853 H         1 <0>         0.0877 
      39 H11       -2.5950   -3.6228    8.3333 H         1 <0>         0.1149 
      40 H12       -1.2156   -2.9834    9.2531 H         1 <0>         0.1150 
      41 H13       -0.0703   -0.4812    5.9212 H         1 <0>         0.1060 
      42 H14        0.1532   -1.9284    4.9147 H         1 <0>         0.1063 
      43 H15        2.0513   -0.5420    7.7206 H         1 <0>         0.4168 
      44 H16        4.1735   -1.0727    4.7804 H         1 <0>         0.1372 
      45 H17        6.6237   -0.6575    4.7192 H         1 <0>         0.1390 
      46 H18        6.5109    0.6118    8.8172 H         1 <0>         0.1383 
      47 H19        4.0607    0.1931    8.8794 H         1 <0>         0.1486 
@<TRIPOS>BOND
       1        1        2 1        
       2        1       29 1        
       3        1       30 1        
       4        1       31 1        
       5        2        3 1        
       6        3        8 ar       
       7        3        4 ar       
       8        4        5 ar       
       9        4       32 1        
      10        5        6 ar       
      11        5       27 1        
      12        6        7 ar       
      13        6       33 1        
      14        7        8 ar       
      15        7       34 1        
      16        8        9 1        
      17        9       10 1        
      18       10       11 1        
      19       10       35 1        
      20       10       36 1        
      21       11       12 1        
      22       11       37 1        
      23       11       38 1        
      24       12       13 1        
      25       12       39 1        
      26       12       40 1        
      27       13       14 2        
      28       13       15 1        
      29       15       16 1        
      30       16       17 1        
      31       16       41 1        
      32       16       42 1        
      33       17       18 2        
      34       17       19 am       
      35       19       20 1        
      36       19       43 1        
      37       20       25 ar       
      38       20       21 ar       
      39       21       22 ar       
      40       21       44 1        
      41       22       23 ar       
      42       22       45 1        
      43       23       24 ar       
      44       23       26 1        
      45       24       25 ar       
      46       24       46 1        
      47       25       47 1        
      48       27       28 3        

