#        1GCZ_R01_S0001_C0000_L00011_S0001_C0026_G0010_E0001.mol2
#        Tue Jun  6 14:12:09 2017
#        Descriptor:     28    14    14     9     8    14
#        Energy - RMSD - RMSD MassCentre:     -59.4643    999.9999    999.9999
#        Receptor:       1  Surface Point:     1  Conformer:     0
#        Ligand:        11  Surface Point:     1  Conformer:    26
#        BUDE Formal Charge: 0
#        ATOM Count: 47
#        Heavy ATOM Count: 28
@<TRIPOS>MOLECULE
ZINC61303593_1GCZ_R01_S0001_C0000_L00011_S0001_C0026_G0010_E0001
 47 48 0 0 0
SMALL
USER_CHARGES
@<TRIPOS>ATOM
       1 C1        -4.1529    1.1024    9.2606 C.3       1 <0>         0.0220 
       2 O1        -3.3689    1.0947    8.0647 O.3       1 <0>        -0.3006 
       3 C2        -2.1890    0.3987    8.0743 C.ar      1 <0>         0.1008 
       4 C3        -1.3025    0.3927    9.1576 C.ar      1 <0>        -0.1273 
       5 C4        -0.1108   -0.3402    9.1049 C.ar      1 <0>        -0.0284 
       6 C5         0.1989   -1.0739    7.9599 C.ar      1 <0>        -0.0603 
       7 C6        -0.6851   -1.0702    6.8744 C.ar      1 <0>        -0.1775 
       8 C7        -1.8772   -0.3380    6.9255 C.ar      1 <0>         0.1359 
       9 O2        -2.7828   -0.2934    5.8985 O.3       1 <0>        -0.2949 
      10 C8        -2.2807   -0.1523    4.5670 C.3       1 <0>         0.0554 
      11 C9        -1.5061    1.1597    4.4522 C.3       1 <0>        -0.1108 
      12 C10       -0.9696    1.3105    3.0295 C.3       1 <0>        -0.1085 
      13 C11       -0.0373    0.1636    2.7199 C.2       1 <0>         0.4668 
      14 O3        -0.2861   -0.5837    1.8212 O.2       1 <0>        -0.4984 
      15 O4         1.0778   -0.0176    3.4588 O.3       1 <0>        -0.3293 
      16 C12        1.9301   -1.1173    3.1283 C.3       1 <0>         0.0498 
      17 C13        3.1106   -1.1385    4.0695 C.2       1 <0>         0.5168 
      18 O5         3.3990   -2.1711    4.6724 O.2       1 <0>        -0.4913 
      19 N1         3.8391   -0.0400    4.2467 N.am      1 <0>        -0.6701 
      20 C14        4.9457   -0.0583    5.1284 C.ar      1 <0>         0.1579 
      21 C15        5.2749   -1.2342    5.8132 C.ar      1 <0>        -0.1362 
      22 C16        6.3667   -1.2502    6.6894 C.ar      1 <0>        -0.0710 
      23 C17        7.1327   -0.0949    6.8747 C.ar      1 <0>        -0.1038 
      24 C18        6.8047    1.0802    6.1883 C.ar      1 <0>        -0.0707 
      25 C19        5.7114    1.0988    5.3138 C.ar      1 <0>        -0.1148 
      26 Br1        8.6143   -0.1178    8.0639 Br        1 <0>        -0.0469 
      27 C20        0.8002   -0.3393   10.2331 C.1       1 <0>         0.2541 
      28 N2         1.5293   -0.3389   11.1353 N.1       1 <0>        -0.4124 
      29 H1        -3.5776    1.5514   10.0675 H         1 <0>         0.1051 
      30 H2        -5.0597    1.6805    9.0953 H         1 <0>         0.0578 
      31 H3        -4.4166    0.0811    9.5271 H         1 <0>         0.0579 
      32 H4        -1.4858    0.9398   10.0705 H         1 <0>         0.1456 
      33 H5         1.1176   -1.6401    7.9167 H         1 <0>         0.1399 
      34 H6        -0.3902   -1.6571    6.0171 H         1 <0>         0.1478 
      35 H7        -1.6186   -0.9848    4.3383 H         1 <0>         0.0709 
      36 H8        -3.1113   -0.1450    3.8643 H         1 <0>         0.0709 
      37 H9        -2.1673    1.9931    4.6800 H         1 <0>         0.0878 
      38 H10       -0.6747    1.1534    5.1538 H         1 <0>         0.0877 
      39 H11       -1.7991    1.3030    2.3257 H         1 <0>         0.1149 
      40 H12       -0.4284    2.2503    2.9430 H         1 <0>         0.1150 
      41 H13        2.2845   -1.0075    2.1055 H         1 <0>         0.1060 
      42 H14        1.3751   -2.0482    3.2225 H         1 <0>         0.1063 
      43 H15        3.6023    0.8079    3.7517 H         1 <0>         0.4168 
      44 H16        4.6856   -2.1264    5.6613 H         1 <0>         0.1372 
      45 H17        6.6231   -2.1561    7.2183 H         1 <0>         0.1390 
      46 H18        7.3970    1.9714    6.3342 H         1 <0>         0.1383 
      47 H19        5.4567    2.0021    4.7794 H         1 <0>         0.1486 
@<TRIPOS>BOND
       1        1        2 1        
       2        1       29 1        
       3        1       30 1        
       4        1       31 1        
       5        2        3 1        
       6        3        8 ar       
       7        3        4 ar       
       8        4        5 ar       
       9        4       32 1        
      10        5        6 ar       
      11        5       27 1        
      12        6        7 ar       
      13        6       33 1        
      14        7        8 ar       
      15        7       34 1        
      16        8        9 1        
      17        9       10 1        
      18       10       11 1        
      19       10       35 1        
      20       10       36 1        
      21       11       12 1        
      22       11       37 1        
      23       11       38 1        
      24       12       13 1        
      25       12       39 1        
      26       12       40 1        
      27       13       14 2        
      28       13       15 1        
      29       15       16 1        
      30       16       17 1        
      31       16       41 1        
      32       16       42 1        
      33       17       18 2        
      34       17       19 am       
      35       19       20 1        
      36       19       43 1        
      37       20       25 ar       
      38       20       21 ar       
      39       21       22 ar       
      40       21       44 1        
      41       22       23 ar       
      42       22       45 1        
      43       23       24 ar       
      44       23       26 1        
      45       24       25 ar       
      46       24       46 1        
      47       25       47 1        
      48       27       28 3        

