#        1GCZ_R01_S0001_C0000_L00003_S0001_C0014_G0010_E0001.mol2
#        Tue Jun  6 14:03:54 2017
#        Descriptor:     22    23    23     8    10    15
#        Energy - RMSD - RMSD MassCentre:     -61.4528    999.9999    999.9999
#        Receptor:       1  Surface Point:     1  Conformer:     0
#        Ligand:         3  Surface Point:     1  Conformer:    14
#        BUDE Formal Charge: 0
#        ATOM Count: 58
#        Heavy ATOM Count: 30
@<TRIPOS>MOLECULE
ZINC61580633_1GCZ_R01_S0001_C0000_L00003_S0001_C0014_G0010_E0001
 58 59 0 0 0
SMALL
USER_CHARGES
@<TRIPOS>ATOM
       1 C1        -3.6147    2.3999   13.1779 C.3       1 <0>        -0.1532 
       2 C2        -4.3628    2.0508   11.8946 C.3       1 <0>        -0.1224 
       3 C3        -3.6679    0.8784   11.2037 C.3       1 <0>        -0.1198 
       4 C4        -2.2351    1.2739   10.8492 C.3       1 <0>         0.0610 
       5 O1        -2.2577    2.3568    9.9155 O.3       1 <0>        -0.3878 
       6 C5        -0.9400    2.7714    9.5456 C.3       1 <0>         0.0487 
       7 C6        -1.0313    3.9268    8.5500 C.3       1 <0>         0.1244 
       8 N1         0.3232    4.3530    8.1699 N.am      1 <0>        -0.7216 
       9 C7         1.0816    5.0121    9.0412 C.2       1 <0>         0.5161 
      10 O2         0.6505    5.2653   10.1648 O.2       1 <0>        -0.5151 
      11 C8         2.4731    5.4499    8.6506 C.3       1 <0>         0.0490 
      12 O3         3.3169    4.3018    8.5304 O.3       1 <0>        -0.3194 
      13 C9         3.0131    3.3889    7.5835 C.2       1 <0>         0.5417 
      14 O4         2.0436    3.5567    6.8621 O.2       1 <0>        -0.5337 
      15 C10        3.8564    2.1838    7.4203 C.2       1 <0>        -0.2559 
      16 C11        5.0595    1.8892    8.2303 C.2       1 <0>        -0.0791 
      17 C12        5.6464    0.7449    7.8719 C.2       1 <0>        -0.2585 
      18 S1         4.8031   -0.0684    6.5453 S.3       1 <0>         0.3028 
      19 C13        3.6116    1.2396    6.5016 C.2       1 <0>         0.0893 
      20 N2         2.5522    1.3206    5.6367 N.am      1 <0>        -0.6099 
      21 C14        2.3489    0.3587    4.7409 C.2       1 <0>         0.5551 
      22 O5         3.1125   -0.6042    4.6890 O.2       1 <0>        -0.4939 
      23 C15        1.2040    0.4477    3.8074 C.ar      1 <0>        -0.1466 
      24 C16        1.0293   -0.5853    2.8786 C.ar      1 <0>        -0.0772 
      25 C17        0.0092   -0.5215    1.9221 C.ar      1 <0>        -0.1241 
      26 C18       -0.8497    0.5825    1.8699 C.ar      1 <0>        -0.0446 
      27 C19       -0.7110    1.5914    2.8306 C.ar      1 <0>        -0.1261 
      28 C20        0.2920    1.5098    3.8038 C.ar      1 <0>        -0.0460 
      29 C21       -1.9040    0.6616    0.7917 C.3       1 <0>        -0.0928 
      30 C22       -1.3303    1.3769   -0.4279 C.3       1 <0>        -0.1485 
      31 H1        -2.5943    2.6888   12.9349 H         1 <0>         0.0567 
      32 H2        -3.5999    1.5333   13.8355 H         1 <0>         0.0554 
      33 H3        -4.1172    3.2259   13.6766 H         1 <0>         0.0557 
      34 H4        -5.3872    1.7738   12.1351 H         1 <0>         0.0632 
      35 H5        -4.3660    2.9123   11.2300 H         1 <0>         0.0635 
      36 H6        -3.6516    0.0204   11.8724 H         1 <0>         0.0711 
      37 H7        -4.2076    0.6204   10.2950 H         1 <0>         0.0704 
      38 H8        -1.7102    1.5838   11.7504 H         1 <0>         0.0498 
      39 H9        -1.7230    0.4232   10.4046 H         1 <0>         0.0505 
      40 H10       -0.4126    1.9383    9.0859 H         1 <0>         0.0584 
      41 H11       -0.4000    3.0987   10.4317 H         1 <0>         0.0702 
      42 H12       -1.5578    4.7610    9.0089 H         1 <0>         0.0872 
      43 H13       -1.5703    3.6005    7.6632 H         1 <0>         0.0805 
      44 H14        0.6783    4.1456    7.2474 H         1 <0>         0.4058 
      45 H15        2.4352    5.9728    7.6973 H         1 <0>         0.1008 
      46 H16        2.8724    6.1144    9.4139 H         1 <0>         0.0999 
      47 H17        5.3994    2.5358    9.0258 H         1 <0>         0.1557 
      48 H18        6.5320    0.3639    8.3584 H         1 <0>         0.1929 
      49 H19        1.9252    2.1112    5.6793 H         1 <0>         0.4317 
      50 H20        1.6900   -1.4394    2.8954 H         1 <0>         0.1287 
      51 H21       -0.1199   -1.3273    1.2147 H         1 <0>         0.1326 
      52 H22       -1.3907    2.4306    2.8126 H         1 <0>         0.1342 
      53 H23        0.3132    2.2867    4.5537 H         1 <0>         0.1410 
      54 H24       -2.7636    1.2138    1.1658 H         1 <0>         0.0777 
      55 H25       -2.2119   -0.3437    0.5120 H         1 <0>         0.0771 
      56 H26       -0.4785    0.8171   -0.8085 H         1 <0>         0.0623 
      57 H27       -1.0098    2.3771   -0.1437 H         1 <0>         0.0572 
      58 H28       -2.0940    1.4457   -1.1997 H         1 <0>         0.0578 
@<TRIPOS>BOND
       1        1        2 1        
       2        1       31 1        
       3        1       32 1        
       4        1       33 1        
       5        2        3 1        
       6        2       34 1        
       7        2       35 1        
       8        3        4 1        
       9        3       36 1        
      10        3       37 1        
      11        4        5 1        
      12        4       38 1        
      13        4       39 1        
      14        5        6 1        
      15        6        7 1        
      16        6       40 1        
      17        6       41 1        
      18        7        8 1        
      19        7       42 1        
      20        7       43 1        
      21        8        9 am       
      22        8       44 1        
      23        9       10 2        
      24        9       11 1        
      25       11       12 1        
      26       11       45 1        
      27       11       46 1        
      28       12       13 1        
      29       13       14 2        
      30       13       15 1        
      31       15       19 2        
      32       15       16 1        
      33       16       17 2        
      34       16       47 1        
      35       17       18 1        
      36       17       48 1        
      37       18       19 1        
      38       19       20 1        
      39       20       21 am       
      40       20       49 1        
      41       21       22 2        
      42       21       23 1        
      43       23       28 ar       
      44       23       24 ar       
      45       24       25 ar       
      46       24       50 1        
      47       25       26 ar       
      48       25       51 1        
      49       26       27 ar       
      50       26       29 1        
      51       27       28 ar       
      52       27       52 1        
      53       28       53 1        
      54       29       30 1        
      55       29       54 1        
      56       29       55 1        
      57       30       56 1        
      58       30       57 1        
      59       30       58 1        

