#        1GCZ_R01_S0001_C0000_L00011_S0001_C0027_G0010_E0001.mol2
#        Tue Jun  6 09:58:15 2017
#        Descriptor:     17    34    32    10     4    14
#        Energy - RMSD - RMSD MassCentre:     -66.1809    999.9999    999.9999
#        Receptor:       1  Surface Point:     1  Conformer:     0
#        Ligand:        11  Surface Point:     1  Conformer:    27
#        BUDE Formal Charge: 0
#        ATOM Count: 47
#        Heavy ATOM Count: 28
@<TRIPOS>MOLECULE
ZINC61303593_1GCZ_R01_S0001_C0000_L00011_S0001_C0027_G0010_E0001
 47 48 0 0 0
SMALL
USER_CHARGES
@<TRIPOS>ATOM
       1 C1        -2.9555    0.2831    6.3410 C.3       1 <0>         0.0220 
       2 O1        -1.7179   -0.4221    6.2146 O.3       1 <0>        -0.3006 
       3 C2        -0.9215   -0.1344    5.1376 C.ar      1 <0>         0.1008 
       4 C3        -1.4150    0.0830    3.8457 C.ar      1 <0>        -0.1273 
       5 C4        -0.5475    0.3735    2.7861 C.ar      1 <0>        -0.0284 
       6 C5         0.8258    0.4478    3.0182 C.ar      1 <0>        -0.0603 
       7 C6         1.3232    0.2311    4.3087 C.ar      1 <0>        -0.1775 
       8 C7         0.4571   -0.0596    5.3695 C.ar      1 <0>         0.1359 
       9 O2         0.8802   -0.2815    6.6534 O.3       1 <0>        -0.2949 
      10 C8         2.0397   -1.0961    6.8460 C.3       1 <0>         0.0554 
      11 C9         1.7801   -2.4919    6.2814 C.3       1 <0>        -0.1108 
      12 C10        3.0190   -3.3622    6.4872 C.3       1 <0>        -0.1085 
      13 C11        2.7623   -4.7417    5.9291 C.2       1 <0>         0.4668 
      14 O3         3.4449   -5.1657    5.0445 O.2       1 <0>        -0.4984 
      15 O4         1.7613   -5.4964    6.4298 O.3       1 <0>        -0.3293 
      16 C12        1.5563   -6.7960    5.8694 C.3       1 <0>         0.0498 
      17 C13        2.7768   -7.6492    6.1197 C.2       1 <0>         0.5168 
      18 O5         3.3163   -8.2412    5.1863 O.2       1 <0>        -0.4913 
      19 N1         3.2688   -7.7605    7.3504 N.am      1 <0>        -0.6701 
      20 C14        4.4124   -8.5596    7.5866 C.ar      1 <0>         0.1579 
      21 C15        5.0273   -9.2320    6.5238 C.ar      1 <0>        -0.1362 
      22 C16        6.1557  -10.0267    6.7589 C.ar      1 <0>        -0.0710 
      23 C17        6.6729  -10.1427    8.0531 C.ar      1 <0>        -0.1038 
      24 C18        6.0591   -9.4685    9.1154 C.ar      1 <0>        -0.0707 
      25 C19        4.9289   -8.6757    8.8825 C.ar      1 <0>        -0.1148 
      26 Br1        8.2043  -11.2213    8.3712 Br        1 <0>        -0.0469 
      27 C20       -1.0698    0.5968    1.4520 C.1       1 <0>         0.2541 
      28 N2        -1.4871    0.7756    0.3845 N.1       1 <0>        -0.4124 
      29 H1        -3.5809    0.0746    5.4756 H         1 <0>         0.1051 
      30 H2        -3.4662   -0.0414    7.2452 H         1 <0>         0.0578 
      31 H3        -2.7589    1.3516    6.3985 H         1 <0>         0.0579 
      32 H4        -2.4665    0.0392    3.6029 H         1 <0>         0.1456 
      33 H5         1.4973    0.6717    2.2025 H         1 <0>         0.1399 
      34 H6         2.3945    0.3020    4.4253 H         1 <0>         0.1478 
      35 H7         2.8874   -0.6490    6.3310 H         1 <0>         0.0709 
      36 H8         2.2588   -1.1706    7.9092 H         1 <0>         0.0709 
      37 H9         0.9330   -2.9403    6.7961 H         1 <0>         0.0878 
      38 H10        1.5616   -2.4188    5.2180 H         1 <0>         0.0877 
      39 H11        3.8667   -2.9152    5.9722 H         1 <0>         0.1149 
      40 H12        3.2380   -3.4367    7.5503 H         1 <0>         0.1150 
      41 H13        1.3900   -6.7075    4.7980 H         1 <0>         0.1060 
      42 H14        0.6890   -7.2595    6.3348 H         1 <0>         0.1063 
      43 H15        2.8258   -7.2743    8.1169 H         1 <0>         0.4168 
      44 H16        4.6295   -9.1335    5.5245 H         1 <0>         0.1372 
      45 H17        6.6323  -10.5459    5.9407 H         1 <0>         0.1390 
      46 H18        6.4596   -9.5609   10.1142 H         1 <0>         0.1383 
      47 H19        4.4542   -8.1510    9.6983 H         1 <0>         0.1486 
@<TRIPOS>BOND
       1        1        2 1        
       2        1       29 1        
       3        1       30 1        
       4        1       31 1        
       5        2        3 1        
       6        3        8 ar       
       7        3        4 ar       
       8        4        5 ar       
       9        4       32 1        
      10        5        6 ar       
      11        5       27 1        
      12        6        7 ar       
      13        6       33 1        
      14        7        8 ar       
      15        7       34 1        
      16        8        9 1        
      17        9       10 1        
      18       10       11 1        
      19       10       35 1        
      20       10       36 1        
      21       11       12 1        
      22       11       37 1        
      23       11       38 1        
      24       12       13 1        
      25       12       39 1        
      26       12       40 1        
      27       13       14 2        
      28       13       15 1        
      29       15       16 1        
      30       16       17 1        
      31       16       41 1        
      32       16       42 1        
      33       17       18 2        
      34       17       19 am       
      35       19       20 1        
      36       19       43 1        
      37       20       25 ar       
      38       20       21 ar       
      39       21       22 ar       
      40       21       44 1        
      41       22       23 ar       
      42       22       45 1        
      43       23       24 ar       
      44       23       26 1        
      45       24       25 ar       
      46       24       46 1        
      47       25       47 1        
      48       27       28 3        

