#        1GCZ_R01_S0001_C0000_L00011_S0001_C0027_G0010_E0001.mol2
#        Tue Jun  6 14:12:11 2017
#        Descriptor:     19    35    33    10     4    14
#        Energy - RMSD - RMSD MassCentre:     -63.2874    999.9999    999.9999
#        Receptor:       1  Surface Point:     1  Conformer:     0
#        Ligand:        11  Surface Point:     1  Conformer:    27
#        BUDE Formal Charge: 0
#        ATOM Count: 47
#        Heavy ATOM Count: 28
@<TRIPOS>MOLECULE
ZINC61303593_1GCZ_R01_S0001_C0000_L00011_S0001_C0027_G0010_E0001
 47 48 0 0 0
SMALL
USER_CHARGES
@<TRIPOS>ATOM
       1 C1        -3.2413   -0.1120    5.3449 C.3       1 <0>         0.0220 
       2 O1        -1.9590   -0.7177    5.5282 O.3       1 <0>        -0.3006 
       3 C2        -0.8967   -0.1941    4.8396 C.ar      1 <0>         0.1008 
       4 C3        -0.9721    0.2352    3.5092 C.ar      1 <0>        -0.1273 
       5 C4         0.1514    0.7619    2.8609 C.ar      1 <0>        -0.0284 
       6 C5         1.3616    0.8609    3.5470 C.ar      1 <0>        -0.0603 
       7 C6         1.4411    0.4326    4.8774 C.ar      1 <0>        -0.1775 
       8 C7         0.3186   -0.0943    5.5273 C.ar      1 <0>         0.1359 
       9 O2         0.3308   -0.5302    6.8260 O.3       1 <0>        -0.2949 
      10 C8         1.4496   -1.3067    7.2623 C.3       1 <0>         0.0554 
      11 C9         1.5382   -2.5839    6.4284 C.3       1 <0>        -0.1108 
      12 C10        2.7337   -3.4136    6.8947 C.3       1 <0>        -0.1085 
      13 C11        2.8212   -4.6759    6.0705 C.2       1 <0>         0.4668 
      14 O3         3.7927   -4.8924    5.4090 O.2       1 <0>        -0.4984 
      15 O4         1.8015   -5.5604    6.0809 O.3       1 <0>        -0.3293 
      16 C12        1.9297   -6.7413    5.2847 C.3       1 <0>         0.0498 
      17 C13        3.0917   -7.5634    5.7888 C.2       1 <0>         0.5168 
      18 O5         3.9625   -7.9428    5.0074 O.2       1 <0>        -0.4913 
      19 N1         3.1737   -7.8773    7.0786 N.am      1 <0>        -0.6701 
      20 C14        4.2619   -8.6476    7.5525 C.ar      1 <0>         0.1579 
      21 C15        5.2539   -9.0779    6.6633 C.ar      1 <0>        -0.1362 
      22 C16        6.3277   -9.8445    7.1319 C.ar      1 <0>        -0.0710 
      23 C17        6.4135  -10.1736    8.4884 C.ar      1 <0>        -0.1038 
      24 C18        5.4225   -9.7414    9.3778 C.ar      1 <0>        -0.0707 
      25 C19        4.3466   -8.9772    8.9104 C.ar      1 <0>        -0.1148 
      26 Br1        7.8711  -11.2137    9.1234 Br        1 <0>        -0.0469 
      27 C20        0.0617    1.2035    1.4827 C.1       1 <0>         0.2541 
      28 N2        -0.0094    1.5569    0.3802 N.1       1 <0>        -0.4124 
      29 H1        -3.5307   -0.1867    4.2987 H         1 <0>         0.1051 
      30 H2        -3.9756   -0.6249    5.9625 H         1 <0>         0.0578 
      31 H3        -3.1915    0.9356    5.6342 H         1 <0>         0.0579 
      32 H4        -1.8793    0.1844    2.9256 H         1 <0>         0.1456 
      33 H5         2.2299    1.2667    3.0492 H         1 <0>         0.1399 
      34 H6         2.4044    0.5346    5.3548 H         1 <0>         0.1478 
      35 H7         2.3632   -0.7291    7.1382 H         1 <0>         0.0709 
      36 H8         1.3241   -1.5672    8.3112 H         1 <0>         0.0709 
      37 H9         0.6255   -3.1628    6.5523 H         1 <0>         0.0878 
      38 H10        1.6645   -2.3249    5.3793 H         1 <0>         0.0877 
      39 H11        3.6473   -2.8361    6.7705 H         1 <0>         0.1149 
      40 H12        2.6082   -3.6740    7.9435 H         1 <0>         0.1150 
      41 H13        2.1059   -6.4630    4.2479 H         1 <0>         0.1060 
      42 H14        1.0153   -7.3268    5.3534 H         1 <0>         0.1063 
      43 H15        2.4586   -7.5658    7.7202 H         1 <0>         0.4168 
      44 H16        5.1880   -8.8149    5.6178 H         1 <0>         0.1372 
      45 H17        7.0945  -10.1771    6.4481 H         1 <0>         0.1390 
      46 H18        5.4904   -9.9981   10.4247 H         1 <0>         0.1383 
      47 H19        3.5816   -8.6386    9.5934 H         1 <0>         0.1486 
@<TRIPOS>BOND
       1        1        2 1        
       2        1       29 1        
       3        1       30 1        
       4        1       31 1        
       5        2        3 1        
       6        3        8 ar       
       7        3        4 ar       
       8        4        5 ar       
       9        4       32 1        
      10        5        6 ar       
      11        5       27 1        
      12        6        7 ar       
      13        6       33 1        
      14        7        8 ar       
      15        7       34 1        
      16        8        9 1        
      17        9       10 1        
      18       10       11 1        
      19       10       35 1        
      20       10       36 1        
      21       11       12 1        
      22       11       37 1        
      23       11       38 1        
      24       12       13 1        
      25       12       39 1        
      26       12       40 1        
      27       13       14 2        
      28       13       15 1        
      29       15       16 1        
      30       16       17 1        
      31       16       41 1        
      32       16       42 1        
      33       17       18 2        
      34       17       19 am       
      35       19       20 1        
      36       19       43 1        
      37       20       25 ar       
      38       20       21 ar       
      39       21       22 ar       
      40       21       44 1        
      41       22       23 ar       
      42       22       45 1        
      43       23       24 ar       
      44       23       26 1        
      45       24       25 ar       
      46       24       46 1        
      47       25       47 1        
      48       27       28 3        

