#        1GCZ_R01_S0001_C0000_L00011_S0001_C0028_G0010_E0001.mol2
#        Tue Jun  6 09:58:16 2017
#        Descriptor:      3    29    26     9     9    14
#        Energy - RMSD - RMSD MassCentre:     -63.2663    999.9999    999.9999
#        Receptor:       1  Surface Point:     1  Conformer:     0
#        Ligand:        11  Surface Point:     1  Conformer:    28
#        BUDE Formal Charge: 0
#        ATOM Count: 47
#        Heavy ATOM Count: 28
@<TRIPOS>MOLECULE
ZINC61303593_1GCZ_R01_S0001_C0000_L00011_S0001_C0028_G0010_E0001
 47 48 0 0 0
SMALL
USER_CHARGES
@<TRIPOS>ATOM
       1 C1         3.8446    2.9570    5.1434 C.3       1 <0>         0.0220 
       2 O1         4.2672    2.4460    6.4103 O.3       1 <0>        -0.3006 
       3 C2         3.5448    2.7997    7.5193 C.ar      1 <0>         0.1008 
       4 C3         3.0357    4.0860    7.7338 C.ar      1 <0>        -0.1273 
       5 C4         2.3041    4.3842    8.8896 C.ar      1 <0>        -0.0284 
       6 C5         2.0788    3.3888    9.8403 C.ar      1 <0>        -0.0603 
       7 C6         2.5863    2.1014    9.6294 C.ar      1 <0>        -0.1775 
       8 C7         3.3180    1.8015    8.4742 C.ar      1 <0>         0.1359 
       9 O2         3.8406    0.5632    8.2091 O.3       1 <0>        -0.2949 
      10 C8         3.0248   -0.5804    8.4767 C.3       1 <0>         0.0554 
      11 C9         1.7564   -0.5099    7.6277 C.3       1 <0>        -0.1108 
      12 C10        0.8848   -1.7319    7.9136 C.3       1 <0>        -0.1085 
      13 C11       -0.3689   -1.6623    7.0746 C.2       1 <0>         0.4668 
      14 O3        -0.6063   -2.5237    6.2810 O.2       1 <0>        -0.4984 
      15 O4        -1.2219   -0.6263    7.2212 O.3       1 <0>        -0.3293 
      16 C12       -2.3958   -0.6035    6.4049 C.3       1 <0>         0.0498 
      17 C13       -1.9957   -0.5053    4.9522 C.2       1 <0>         0.5168 
      18 O5        -2.4487   -1.3036    4.1334 O.2       1 <0>        -0.4913 
      19 N1        -1.1529    0.4449    4.5577 N.am      1 <0>        -0.6701 
      20 C14       -0.7770    0.5382    3.1968 C.ar      1 <0>         0.1579 
      21 C15       -1.2940   -0.3693    2.2647 C.ar      1 <0>        -0.1362 
      22 C16       -0.9176   -0.2797    0.9191 C.ar      1 <0>        -0.0710 
      23 C17       -0.0319    0.7202    0.5051 C.ar      1 <0>        -0.1038 
      24 C18        0.4834    1.6289    1.4370 C.ar      1 <0>        -0.0707 
      25 C19        0.1102    1.5390    2.7834 C.ar      1 <0>        -0.1148 
      26 Br1        0.4782    0.8410   -1.3212 Br        1 <0>        -0.0469 
      27 C20        1.7814    5.7200    9.1014 C.1       1 <0>         0.2541 
      28 N2         1.3630    6.7884    9.2715 N.1       1 <0>        -0.4124 
      29 H1         3.8846    4.0441    5.1599 H         1 <0>         0.1051 
      30 H2         4.5033    2.5809    4.3633 H         1 <0>         0.0578 
      31 H3         2.8248    2.6339    4.9447 H         1 <0>         0.0579 
      32 H4         3.1764    4.8981    7.0359 H         1 <0>         0.1456 
      33 H5         1.5148    3.6161   10.7329 H         1 <0>         0.1399 
      34 H6         2.3790    1.3744   10.4007 H         1 <0>         0.1478 
      35 H7         3.5759   -1.4855    8.2299 H         1 <0>         0.0709 
      36 H8         2.7548   -0.5955    9.5305 H         1 <0>         0.0709 
      37 H9         1.2041    0.3944    7.8742 H         1 <0>         0.0878 
      38 H10        2.0251   -0.4957    6.5736 H         1 <0>         0.0877 
      39 H11        1.4357   -2.6370    7.6669 H         1 <0>         0.1149 
      40 H12        0.6147   -1.7471    8.9674 H         1 <0>         0.1150 
      41 H13       -3.0066    0.2566    6.6710 H         1 <0>         0.1060 
      42 H14       -2.9658   -1.5166    6.5625 H         1 <0>         0.1063 
      43 H15       -0.7809    1.1004    5.2301 H         1 <0>         0.4168 
      44 H16       -1.9839   -1.1352    2.5872 H         1 <0>         0.1372 
      45 H17       -1.3155   -0.9782    0.1980 H         1 <0>         0.1390 
      46 H18        1.1683    2.3993    1.1149 H         1 <0>         0.1383 
      47 H19        0.5025    2.2400    3.5052 H         1 <0>         0.1486 
@<TRIPOS>BOND
       1        1        2 1        
       2        1       29 1        
       3        1       30 1        
       4        1       31 1        
       5        2        3 1        
       6        3        8 ar       
       7        3        4 ar       
       8        4        5 ar       
       9        4       32 1        
      10        5        6 ar       
      11        5       27 1        
      12        6        7 ar       
      13        6       33 1        
      14        7        8 ar       
      15        7       34 1        
      16        8        9 1        
      17        9       10 1        
      18       10       11 1        
      19       10       35 1        
      20       10       36 1        
      21       11       12 1        
      22       11       37 1        
      23       11       38 1        
      24       12       13 1        
      25       12       39 1        
      26       12       40 1        
      27       13       14 2        
      28       13       15 1        
      29       15       16 1        
      30       16       17 1        
      31       16       41 1        
      32       16       42 1        
      33       17       18 2        
      34       17       19 am       
      35       19       20 1        
      36       19       43 1        
      37       20       25 ar       
      38       20       21 ar       
      39       21       22 ar       
      40       21       44 1        
      41       22       23 ar       
      42       22       45 1        
      43       23       24 ar       
      44       23       26 1        
      45       24       25 ar       
      46       24       46 1        
      47       25       47 1        
      48       27       28 3        

