#        1GCZ_R01_S0001_C0000_L00011_S0001_C0028_G0010_E0001.mol2
#        Tue Jun  6 14:12:13 2017
#        Descriptor:     25    15    19    11     7    13
#        Energy - RMSD - RMSD MassCentre:     -60.8877    999.9999    999.9999
#        Receptor:       1  Surface Point:     1  Conformer:     0
#        Ligand:        11  Surface Point:     1  Conformer:    28
#        BUDE Formal Charge: 0
#        ATOM Count: 47
#        Heavy ATOM Count: 28
@<TRIPOS>MOLECULE
ZINC61303593_1GCZ_R01_S0001_C0000_L00011_S0001_C0028_G0010_E0001
 47 48 0 0 0
SMALL
USER_CHARGES
@<TRIPOS>ATOM
       1 C1         2.5557    2.5127    4.6549 C.3       1 <0>         0.0220 
       2 O1         1.2165    2.1229    4.9697 O.3       1 <0>        -0.3006 
       3 C2         0.5650    1.2960    4.0930 C.ar      1 <0>         0.1008 
       4 C3         0.6497    1.4220    2.7013 C.ar      1 <0>        -0.1273 
       5 C4        -0.0415    0.5435    1.8583 C.ar      1 <0>        -0.0284 
       6 C5        -0.8247   -0.4702    2.4098 C.ar      1 <0>        -0.0603 
       7 C6        -0.9120   -0.5994    3.8009 C.ar      1 <0>        -0.1775 
       8 C7        -0.2214    0.2781    4.6453 C.ar      1 <0>         0.1359 
       9 O2        -0.2655    0.2048    6.0126 O.3       1 <0>        -0.2949 
      10 C8        -0.1789   -1.0878    6.6182 C.3       1 <0>         0.0554 
      11 C9         1.1520   -1.7373    6.2421 C.3       1 <0>        -0.1108 
      12 C10        1.2445   -3.1184    6.8892 C.3       1 <0>        -0.1085 
      13 C11        2.5598   -3.7604    6.5175 C.2       1 <0>         0.4668 
      14 O3         3.3433   -4.0562    7.3701 O.2       1 <0>        -0.4984 
      15 O4         2.8508   -4.0003    5.2213 O.3       1 <0>        -0.3293 
      16 C12        4.1083   -4.6100    4.9179 C.3       1 <0>         0.0498 
      17 C13        5.2280   -3.6931    5.3488 C.2       1 <0>         0.5168 
      18 O5         6.1333   -4.1203    6.0635 O.2       1 <0>        -0.4913 
      19 N1         5.2354   -2.4227    4.9551 N.am      1 <0>        -0.6701 
      20 C14        6.2840   -1.5622    5.3579 C.ar      1 <0>         0.1579 
      21 C15        7.3152   -2.0490    6.1700 C.ar      1 <0>        -0.1362 
      22 C16        8.3497   -1.1958    6.5726 C.ar      1 <0>        -0.0710 
      23 C17        8.3571    0.1397    6.1576 C.ar      1 <0>        -0.1038 
      24 C18        7.3270    0.6257    5.3438 C.ar      1 <0>        -0.0707 
      25 C19        6.2902   -0.2254    4.9426 C.ar      1 <0>        -0.1148 
      26 Br1        9.7615    1.2967    6.7043 Br        1 <0>        -0.0469 
      27 C20        0.0536    0.6834    0.4182 C.1       1 <0>         0.2541 
      28 N2         0.1293    0.7947   -0.7339 N.1       1 <0>        -0.4124 
      29 H1         2.5628    3.0549    3.7118 H         1 <0>         0.1051 
      30 H2         2.9416    3.1532    5.4453 H         1 <0>         0.0578 
      31 H3         3.1801    1.6258    4.5688 H         1 <0>         0.0579 
      32 H4         1.2389    2.1852    2.2148 H         1 <0>         0.1456 
      33 H5        -1.3590   -1.1492    1.7618 H         1 <0>         0.1399 
      34 H6        -1.5335   -1.4029    4.1675 H         1 <0>         0.1478 
      35 H7        -0.2397   -0.9871    7.6999 H         1 <0>         0.0709 
      36 H8        -0.9982   -1.7101    6.2647 H         1 <0>         0.0709 
      37 H9         1.2137   -1.8393    5.1607 H         1 <0>         0.0878 
      38 H10        1.9722   -1.1162    6.5959 H         1 <0>         0.0877 
      39 H11        1.1836   -3.0177    7.9707 H         1 <0>         0.1149 
      40 H12        0.4252   -3.7409    6.5357 H         1 <0>         0.1150 
      41 H13        4.1771   -4.7869    3.8467 H         1 <0>         0.1060 
      42 H14        4.1907   -5.5561    5.4485 H         1 <0>         0.1063 
      43 H15        4.4921   -2.0719    4.3681 H         1 <0>         0.4168 
      44 H16        7.3099   -3.0831    6.4818 H         1 <0>         0.1372 
      45 H17        9.1466   -1.5691    7.1984 H         1 <0>         0.1390 
      46 H18        7.3343    1.6579    5.0259 H         1 <0>         0.1383 
      47 H19        5.4952    0.1443    4.3120 H         1 <0>         0.1486 
@<TRIPOS>BOND
       1        1        2 1        
       2        1       29 1        
       3        1       30 1        
       4        1       31 1        
       5        2        3 1        
       6        3        8 ar       
       7        3        4 ar       
       8        4        5 ar       
       9        4       32 1        
      10        5        6 ar       
      11        5       27 1        
      12        6        7 ar       
      13        6       33 1        
      14        7        8 ar       
      15        7       34 1        
      16        8        9 1        
      17        9       10 1        
      18       10       11 1        
      19       10       35 1        
      20       10       36 1        
      21       11       12 1        
      22       11       37 1        
      23       11       38 1        
      24       12       13 1        
      25       12       39 1        
      26       12       40 1        
      27       13       14 2        
      28       13       15 1        
      29       15       16 1        
      30       16       17 1        
      31       16       41 1        
      32       16       42 1        
      33       17       18 2        
      34       17       19 am       
      35       19       20 1        
      36       19       43 1        
      37       20       25 ar       
      38       20       21 ar       
      39       21       22 ar       
      40       21       44 1        
      41       22       23 ar       
      42       22       45 1        
      43       23       24 ar       
      44       23       26 1        
      45       24       25 ar       
      46       24       46 1        
      47       25       47 1        
      48       27       28 3        

