#        1GCZ_R01_S0001_C0000_L00011_S0001_C0029_G0010_E0001.mol2
#        Tue Jun  6 09:58:16 2017
#        Descriptor:      2    12     7     9    10    15
#        Energy - RMSD - RMSD MassCentre:     -57.2739    999.9999    999.9999
#        Receptor:       1  Surface Point:     1  Conformer:     0
#        Ligand:        11  Surface Point:     1  Conformer:    29
#        BUDE Formal Charge: 0
#        ATOM Count: 47
#        Heavy ATOM Count: 28
@<TRIPOS>MOLECULE
ZINC61303593_1GCZ_R01_S0001_C0000_L00011_S0001_C0029_G0010_E0001
 47 48 0 0 0
SMALL
USER_CHARGES
@<TRIPOS>ATOM
       1 C1         1.4056    5.4828    7.0115 C.3       1 <0>         0.0220 
       2 O1         1.6309    4.0770    6.8784 O.3       1 <0>        -0.3006 
       3 C2         2.2504    3.4249    7.9116 C.ar      1 <0>         0.1008 
       4 C3         1.9812    3.6811    9.2613 C.ar      1 <0>        -0.1273 
       5 C4         2.6493    2.9792   10.2716 C.ar      1 <0>        -0.0284 
       6 C5         3.5951    2.0122    9.9315 C.ar      1 <0>        -0.0603 
       7 C6         3.8670    1.7531    8.5830 C.ar      1 <0>        -0.1775 
       8 C7         3.1998    2.4541    7.5714 C.ar      1 <0>         0.1359 
       9 O2         3.4203    2.2476    6.2351 O.3       1 <0>        -0.2949 
      10 C8         3.5431    0.8989    5.7761 C.3       1 <0>         0.0554 
      11 C9         3.7837    0.8952    4.2671 C.3       1 <0>        -0.1108 
      12 C10        2.5980    1.5518    3.5618 C.3       1 <0>        -0.1085 
      13 C11        1.3408    0.7696    3.8584 C.2       1 <0>         0.4668 
      14 O3         1.3901   -0.2009    4.5541 O.2       1 <0>        -0.4984 
      15 O4         0.1605    1.1669    3.3374 O.3       1 <0>        -0.3293 
      16 C12       -1.0028    0.3946    3.6461 C.3       1 <0>         0.0498 
      17 C13       -1.2590    0.4447    5.1333 C.2       1 <0>         0.5168 
      18 O5        -1.4146   -0.5981    5.7669 O.2       1 <0>        -0.4913 
      19 N1        -1.3163    1.6171    5.7587 N.am      1 <0>        -0.6701 
      20 C14       -1.5563    1.6657    7.1523 C.ar      1 <0>         0.1579 
      21 C15       -1.7317    0.4788    7.8735 C.ar      1 <0>        -0.1362 
      22 C16       -1.9744    0.5278    9.2516 C.ar      1 <0>        -0.0710 
      23 C17       -2.0338    1.7609    9.9085 C.ar      1 <0>        -0.1038 
      24 C18       -1.8562    2.9476    9.1875 C.ar      1 <0>        -0.0707 
      25 C19       -1.6164    2.9006    7.8089 C.ar      1 <0>        -0.1148 
      26 Br1       -2.3630    1.8263   11.7786 Br        1 <0>        -0.0469 
      27 C20        2.3625    3.2529   11.6664 C.1       1 <0>         0.2541 
      28 N2         2.1335    3.4713   12.7824 N.1       1 <0>        -0.4124 
      29 H1         2.3597    5.9934    7.1237 H         1 <0>         0.1051 
      30 H2         0.8971    5.8537    6.1240 H         1 <0>         0.0578 
      31 H3         0.7885    5.6691    7.8880 H         1 <0>         0.0579 
      32 H4         1.2608    4.4165    9.5879 H         1 <0>         0.1456 
      33 H5         4.1120    1.4692   10.7089 H         1 <0>         0.1399 
      34 H6         4.6086    0.9938    8.3831 H         1 <0>         0.1478 
      35 H7         4.3813    0.4194    6.2774 H         1 <0>         0.0709 
      36 H8         2.6276    0.3547    5.9981 H         1 <0>         0.0709 
      37 H9         4.6916    1.4510    4.0426 H         1 <0>         0.0878 
      38 H10        3.8898   -0.1300    3.9186 H         1 <0>         0.0877 
      39 H11        2.4821    2.5726    3.9197 H         1 <0>         0.1149 
      40 H12        2.7737    1.5611    2.4881 H         1 <0>         0.1150 
      41 H13       -0.8453   -0.6375    3.3404 H         1 <0>         0.1060 
      42 H14       -1.8610    0.8033    3.1169 H         1 <0>         0.1063 
      43 H15       -1.1885    2.4733    5.2384 H         1 <0>         0.4168 
      44 H16       -1.6772   -0.4718    7.3638 H         1 <0>         0.1372 
      45 H17       -2.1094   -0.3864    9.8103 H         1 <0>         0.1390 
      46 H18       -1.9041    3.8987    9.6969 H         1 <0>         0.1383 
      47 H19       -1.4753    3.8134    7.2492 H         1 <0>         0.1486 
@<TRIPOS>BOND
       1        1        2 1        
       2        1       29 1        
       3        1       30 1        
       4        1       31 1        
       5        2        3 1        
       6        3        8 ar       
       7        3        4 ar       
       8        4        5 ar       
       9        4       32 1        
      10        5        6 ar       
      11        5       27 1        
      12        6        7 ar       
      13        6       33 1        
      14        7        8 ar       
      15        7       34 1        
      16        8        9 1        
      17        9       10 1        
      18       10       11 1        
      19       10       35 1        
      20       10       36 1        
      21       11       12 1        
      22       11       37 1        
      23       11       38 1        
      24       12       13 1        
      25       12       39 1        
      26       12       40 1        
      27       13       14 2        
      28       13       15 1        
      29       15       16 1        
      30       16       17 1        
      31       16       41 1        
      32       16       42 1        
      33       17       18 2        
      34       17       19 am       
      35       19       20 1        
      36       19       43 1        
      37       20       25 ar       
      38       20       21 ar       
      39       21       22 ar       
      40       21       44 1        
      41       22       23 ar       
      42       22       45 1        
      43       23       24 ar       
      44       23       26 1        
      45       24       25 ar       
      46       24       46 1        
      47       25       47 1        
      48       27       28 3        

