#        1GCZ_R01_S0001_C0000_L00011_S0001_C0029_G0010_E0001.mol2
#        Tue Jun  6 14:12:15 2017
#        Descriptor:     32    17    10     9     7    14
#        Energy - RMSD - RMSD MassCentre:     -55.7434    999.9999    999.9999
#        Receptor:       1  Surface Point:     1  Conformer:     0
#        Ligand:        11  Surface Point:     1  Conformer:    29
#        BUDE Formal Charge: 0
#        ATOM Count: 47
#        Heavy ATOM Count: 28
@<TRIPOS>MOLECULE
ZINC61303593_1GCZ_R01_S0001_C0000_L00011_S0001_C0029_G0010_E0001
 47 48 0 0 0
SMALL
USER_CHARGES
@<TRIPOS>ATOM
       1 C1         2.7699    1.3926    7.8540 C.3       1 <0>         0.0220 
       2 O1         2.2574    0.5889    6.7881 O.3       1 <0>        -0.3006 
       3 C2         3.0041   -0.4828    6.3751 C.ar      1 <0>         0.1008 
       4 C3         3.6879   -1.3338    7.2513 C.ar      1 <0>        -0.1273 
       5 C4         4.4350   -2.4135    6.7653 C.ar      1 <0>        -0.0284 
       6 C5         4.4999   -2.6460    5.3917 C.ar      1 <0>        -0.0603 
       7 C6         3.8174   -1.7972    4.5123 C.ar      1 <0>        -0.1775 
       8 C7         3.0700   -0.7170    4.9965 C.ar      1 <0>         0.1359 
       9 O2         2.3804    0.1490    4.1893 O.3       1 <0>        -0.2949 
      10 C8         1.6349   -0.3995    3.0993 C.3       1 <0>         0.0554 
      11 C9         0.9476    0.7303    2.3337 C.3       1 <0>        -0.1108 
      12 C10       -0.0111    1.4673    3.2676 C.3       1 <0>        -0.1085 
      13 C11       -1.0624    0.5062    3.7690 C.2       1 <0>         0.4668 
      14 O3        -1.0447   -0.6361    3.4183 O.2       1 <0>        -0.4984 
      15 O4        -2.0228    0.9377    4.6138 O.3       1 <0>        -0.3293 
      16 C12       -2.9968   -0.0087    5.0617 C.3       1 <0>         0.0498 
      17 C13       -2.3132   -1.0947    5.8577 C.2       1 <0>         0.5168 
      18 O5        -2.5061   -2.2769    5.5787 O.2       1 <0>        -0.4913 
      19 N1        -1.5019   -0.7725    6.8611 N.am      1 <0>        -0.6701 
      20 C14       -0.8606   -1.7888    7.6080 C.ar      1 <0>         0.1579 
      21 C15       -1.0789   -3.1344    7.2892 C.ar      1 <0>        -0.1362 
      22 C16       -0.4481   -4.1398    8.0319 C.ar      1 <0>        -0.0710 
      23 C17        0.4054   -3.8002    9.0865 C.ar      1 <0>        -0.1038 
      24 C18        0.6252   -2.4545    9.4037 C.ar      1 <0>        -0.0707 
      25 C19       -0.0069   -1.4479    8.6639 C.ar      1 <0>        -0.1148 
      26 Br1        1.2610   -5.1652   10.0936 Br        1 <0>        -0.0469 
      27 C20        5.1393   -3.2886    7.6822 C.1       1 <0>         0.2541 
      28 N2         5.7030   -3.9891    8.4152 N.1       1 <0>        -0.4124 
      29 H1         3.7239    1.8229    7.5565 H         1 <0>         0.1051 
      30 H2         2.0650    2.1907    8.0770 H         1 <0>         0.0578 
      31 H3         2.9102    0.7744    8.7383 H         1 <0>         0.0579 
      32 H4         3.6763   -1.2062    8.3237 H         1 <0>         0.1456 
      33 H5         5.0753   -3.4782    5.0141 H         1 <0>         0.1399 
      34 H6         3.9057   -2.0284    3.4610 H         1 <0>         0.1478 
      35 H7         2.3077   -0.9327    2.4308 H         1 <0>         0.0709 
      36 H8         0.8835   -1.0867    3.4823 H         1 <0>         0.0709 
      37 H9         1.6972    1.4257    1.9621 H         1 <0>         0.0878 
      38 H10        0.3902    0.3154    1.4966 H         1 <0>         0.0877 
      39 H11        0.5430    1.8707    4.1125 H         1 <0>         0.1149 
      40 H12       -0.4918    2.2800    2.7271 H         1 <0>         0.1150 
      41 H13       -3.4966   -0.4501    4.2021 H         1 <0>         0.1060 
      42 H14       -3.7295    0.4936    5.6896 H         1 <0>         0.1063 
      43 H15       -1.3435    0.1984    7.0902 H         1 <0>         0.4168 
      44 H16       -1.7325   -3.3923    6.4691 H         1 <0>         0.1372 
      45 H17       -0.6144   -5.1784    7.7876 H         1 <0>         0.1390 
      46 H18        1.2837   -2.1949   10.2195 H         1 <0>         0.1383 
      47 H19        0.1624   -0.4084    8.9028 H         1 <0>         0.1486 
@<TRIPOS>BOND
       1        1        2 1        
       2        1       29 1        
       3        1       30 1        
       4        1       31 1        
       5        2        3 1        
       6        3        8 ar       
       7        3        4 ar       
       8        4        5 ar       
       9        4       32 1        
      10        5        6 ar       
      11        5       27 1        
      12        6        7 ar       
      13        6       33 1        
      14        7        8 ar       
      15        7       34 1        
      16        8        9 1        
      17        9       10 1        
      18       10       11 1        
      19       10       35 1        
      20       10       36 1        
      21       11       12 1        
      22       11       37 1        
      23       11       38 1        
      24       12       13 1        
      25       12       39 1        
      26       12       40 1        
      27       13       14 2        
      28       13       15 1        
      29       15       16 1        
      30       16       17 1        
      31       16       41 1        
      32       16       42 1        
      33       17       18 2        
      34       17       19 am       
      35       19       20 1        
      36       19       43 1        
      37       20       25 ar       
      38       20       21 ar       
      39       21       22 ar       
      40       21       44 1        
      41       22       23 ar       
      42       22       45 1        
      43       23       24 ar       
      44       23       26 1        
      45       24       25 ar       
      46       24       46 1        
      47       25       47 1        
      48       27       28 3        

