#        1GCZ_R01_S0001_C0000_L00011_S0001_C0030_G0010_E0001.mol2
#        Tue Jun  6 14:12:17 2017
#        Descriptor:      2    32    27     9    11    13
#        Energy - RMSD - RMSD MassCentre:     -76.5107    999.9999    999.9999
#        Receptor:       1  Surface Point:     1  Conformer:     0
#        Ligand:        11  Surface Point:     1  Conformer:    30
#        BUDE Formal Charge: 0
#        ATOM Count: 47
#        Heavy ATOM Count: 28
@<TRIPOS>MOLECULE
ZINC61303593_1GCZ_R01_S0001_C0000_L00011_S0001_C0030_G0010_E0001
 47 48 0 0 0
SMALL
USER_CHARGES
@<TRIPOS>ATOM
       1 C1         1.9171    4.4676   10.5027 C.3       1 <0>         0.0220 
       2 O1         2.0430    4.1637    9.1111 O.3       1 <0>        -0.3006 
       3 C2         1.8348    5.1754    8.2111 C.ar      1 <0>         0.1008 
       4 C3         0.8210    6.1318    8.3422 C.ar      1 <0>        -0.1273 
       5 C4         0.6603    7.1421    7.3864 C.ar      1 <0>        -0.0284 
       6 C5         1.5198    7.1983    6.2895 C.ar      1 <0>        -0.0603 
       7 C6         2.5348    6.2436    6.1549 C.ar      1 <0>        -0.1775 
       8 C7         2.6968    5.2327    7.1097 C.ar      1 <0>         0.1359 
       9 O2         3.6690    4.2702    7.0356 O.3       1 <0>        -0.2949 
      10 C8         3.9194    3.6663    5.7638 C.3       1 <0>         0.0554 
      11 C9         2.6514    2.9689    5.2735 C.3       1 <0>        -0.1108 
      12 C10        2.2530    1.8798    6.2685 C.3       1 <0>        -0.1085 
      13 C11        0.9998    1.1906    5.7841 C.2       1 <0>         0.4668 
      14 O3         1.0149    0.0196    5.5461 O.2       1 <0>        -0.4984 
      15 O4        -0.1383    1.8978    5.6196 O.3       1 <0>        -0.3293 
      16 C12       -1.2996    1.2020    5.1589 C.3       1 <0>         0.0498 
      17 C13       -1.0417    0.6552    3.7752 C.2       1 <0>         0.5168 
      18 O5        -1.2520   -0.5322    3.5332 O.2       1 <0>        -0.4913 
      19 N1        -0.5868    1.4582    2.8174 N.am      1 <0>        -0.6701 
      20 C14       -0.3447    0.9474    1.5203 C.ar      1 <0>         0.1579 
      21 C15       -0.5858   -0.4038    1.2446 C.ar      1 <0>        -0.1362 
      22 C16       -0.3410   -0.9098   -0.0377 C.ar      1 <0>        -0.0710 
      23 C17        0.1366   -0.0647   -1.0444 C.ar      1 <0>        -0.1038 
      24 C18        0.3756    1.2869   -0.7690 C.ar      1 <0>        -0.0707 
      25 C19        0.1341    1.7939    0.5134 C.ar      1 <0>        -0.1148 
      26 Br1        0.4683   -0.7524   -2.7843 Br        1 <0>        -0.0469 
      27 C20       -0.3933    8.1276    7.5324 C.1       1 <0>         0.2541 
      28 N2        -1.2361    8.9162    7.6485 N.1       1 <0>        -0.4124 
      29 H1         0.9055    4.8116   10.7080 H         1 <0>         0.1051 
      30 H2         2.1229    3.5741   11.0884 H         1 <0>         0.0578 
      31 H3         2.6272    5.2478   10.7686 H         1 <0>         0.0579 
      32 H4         0.1249    6.1414    9.1678 H         1 <0>         0.1456 
      33 H5         1.3980    7.9766    5.5507 H         1 <0>         0.1399 
      34 H6         3.1677    6.3395    5.2851 H         1 <0>         0.1478 
      35 H7         4.2106    4.4328    5.0486 H         1 <0>         0.0709 
      36 H8         4.7202    2.9360    5.8598 H         1 <0>         0.0709 
      37 H9         1.8460    3.6956    5.1906 H         1 <0>         0.0878 
      38 H10        2.8370    2.5196    4.3003 H         1 <0>         0.0877 
      39 H11        3.0573    1.1520    6.3518 H         1 <0>         0.1149 
      40 H12        2.0664    2.3279    7.2422 H         1 <0>         0.1150 
      41 H13       -2.1442    1.8870    5.1258 H         1 <0>         0.1060 
      42 H14       -1.5239    0.3811    5.8365 H         1 <0>         0.1063 
      43 H15       -0.4141    2.4333    3.0162 H         1 <0>         0.4168 
      44 H16       -0.9621   -1.0514    2.0227 H         1 <0>         0.1372 
      45 H17       -0.5268   -1.9516   -0.2532 H         1 <0>         0.1390 
      46 H18        0.7459    1.9371   -1.5478 H         1 <0>         0.1383 
      47 H19        0.3138    2.8367    0.7296 H         1 <0>         0.1486 
@<TRIPOS>BOND
       1        1        2 1        
       2        1       29 1        
       3        1       30 1        
       4        1       31 1        
       5        2        3 1        
       6        3        8 ar       
       7        3        4 ar       
       8        4        5 ar       
       9        4       32 1        
      10        5        6 ar       
      11        5       27 1        
      12        6        7 ar       
      13        6       33 1        
      14        7        8 ar       
      15        7       34 1        
      16        8        9 1        
      17        9       10 1        
      18       10       11 1        
      19       10       35 1        
      20       10       36 1        
      21       11       12 1        
      22       11       37 1        
      23       11       38 1        
      24       12       13 1        
      25       12       39 1        
      26       12       40 1        
      27       13       14 2        
      28       13       15 1        
      29       15       16 1        
      30       16       17 1        
      31       16       41 1        
      32       16       42 1        
      33       17       18 2        
      34       17       19 am       
      35       19       20 1        
      36       19       43 1        
      37       20       25 ar       
      38       20       21 ar       
      39       21       22 ar       
      40       21       44 1        
      41       22       23 ar       
      42       22       45 1        
      43       23       24 ar       
      44       23       26 1        
      45       24       25 ar       
      46       24       46 1        
      47       25       47 1        
      48       27       28 3        

