#        1GCZ_R01_S0001_C0000_L00011_S0001_C0031_G0010_E0001.mol2
#        Tue Jun  6 09:58:18 2017
#        Descriptor:     27    16     4     9     4    15
#        Energy - RMSD - RMSD MassCentre:     -59.5519    999.9999    999.9999
#        Receptor:       1  Surface Point:     1  Conformer:     0
#        Ligand:        11  Surface Point:     1  Conformer:    31
#        BUDE Formal Charge: 0
#        ATOM Count: 47
#        Heavy ATOM Count: 28
@<TRIPOS>MOLECULE
ZINC61303593_1GCZ_R01_S0001_C0000_L00011_S0001_C0031_G0010_E0001
 47 48 0 0 0
SMALL
USER_CHARGES
@<TRIPOS>ATOM
       1 C1        -2.0287   -1.1272    7.5762 C.3       1 <0>         0.0220 
       2 O1        -0.6969   -1.2591    7.0726 O.3       1 <0>        -0.3006 
       3 C2        -0.3783   -0.5961    5.9169 C.ar      1 <0>         0.1008 
       4 C3        -1.2368   -0.5044    4.8150 C.ar      1 <0>        -0.1273 
       5 C4        -0.8514    0.1888    3.6613 C.ar      1 <0>        -0.0284 
       6 C5         0.4029    0.7961    3.6071 C.ar      1 <0>        -0.0603 
       7 C6         1.2643    0.7066    4.7070 C.ar      1 <0>        -0.1775 
       8 C7         0.8805    0.0139    5.8614 C.ar      1 <0>         0.1359 
       9 O2         1.6762   -0.1100    6.9697 O.3       1 <0>        -0.2949 
      10 C8         3.0631   -0.3964    6.7711 C.3       1 <0>         0.0554 
      11 C9         3.2073   -1.7328    6.0444 C.3       1 <0>        -0.1108 
      12 C10        2.5895   -2.8426    6.8937 C.3       1 <0>        -0.1085 
      13 C11        2.7321   -4.1633    6.1755 C.2       1 <0>         0.4668 
      14 O3         3.2666   -4.2090    5.1076 O.2       1 <0>        -0.4984 
      15 O4         2.2555   -5.2931    6.7402 O.3       1 <0>        -0.3293 
      16 C12        1.6239   -5.1889    8.0189 C.3       1 <0>         0.0498 
      17 C13        1.1668   -6.5568    8.4663 C.2       1 <0>         0.5168 
      18 O5         0.0047   -6.7291    8.8306 O.2       1 <0>        -0.4913 
      19 N1         2.0213   -7.5759    8.4665 N.am      1 <0>        -0.6701 
      20 C14        1.5945   -8.8583    8.8855 C.ar      1 <0>         0.1579 
      21 C15        0.2714   -9.0546    9.2984 C.ar      1 <0>        -0.1362 
      22 C16       -0.1490  -10.3225    9.7179 C.ar      1 <0>        -0.0710 
      23 C17        0.7500  -11.3938    9.7172 C.ar      1 <0>        -0.1038 
      24 C18        2.0725  -11.1977    9.3021 C.ar      1 <0>        -0.0707 
      25 C19        2.4953   -9.9299    8.8851 C.ar      1 <0>        -0.1148 
      26 Br1        0.1786  -13.1141   10.2864 Br        1 <0>        -0.0469 
      27 C20       -1.7489    0.2774    2.5259 C.1       1 <0>         0.2541 
      28 N2        -2.4664    0.3486    1.6173 N.1       1 <0>        -0.4124 
      29 H1        -2.7335   -1.5079    6.8399 H         1 <0>         0.1051 
      30 H2        -2.1248   -1.6955    8.4990 H         1 <0>         0.0578 
      31 H3        -2.2393   -0.0779    7.7722 H         1 <0>         0.0579 
      32 H4        -2.2192   -0.9526    4.7961 H         1 <0>         0.1456 
      33 H5         0.7028    1.3315    2.7183 H         1 <0>         0.1399 
      34 H6         2.2211    1.1970    4.6048 H         1 <0>         0.1478 
      35 H7         3.5147    0.3918    6.1725 H         1 <0>         0.0709 
      36 H8         3.5642   -0.4527    7.7353 H         1 <0>         0.0709 
      37 H9         2.6947   -1.6824    5.0861 H         1 <0>         0.0878 
      38 H10        4.2617   -1.9458    5.8816 H         1 <0>         0.0877 
      39 H11        3.1018   -2.8945    7.8521 H         1 <0>         0.1149 
      40 H12        1.5349   -2.6311    7.0566 H         1 <0>         0.1150 
      41 H13        0.7646   -4.5257    7.9467 H         1 <0>         0.1060 
      42 H14        2.3316   -4.7892    8.7421 H         1 <0>         0.1063 
      43 H15        2.9756   -7.4344    8.1673 H         1 <0>         0.4168 
      44 H16       -0.4218   -8.2264    9.2901 H         1 <0>         0.1372 
      45 H17       -1.1692  -10.4767   10.0363 H         1 <0>         0.1390 
      46 H18        2.7652  -12.0264    9.3038 H         1 <0>         0.1383 
      47 H19        3.5137   -9.7747    8.5608 H         1 <0>         0.1486 
@<TRIPOS>BOND
       1        1        2 1        
       2        1       29 1        
       3        1       30 1        
       4        1       31 1        
       5        2        3 1        
       6        3        8 ar       
       7        3        4 ar       
       8        4        5 ar       
       9        4       32 1        
      10        5        6 ar       
      11        5       27 1        
      12        6        7 ar       
      13        6       33 1        
      14        7        8 ar       
      15        7       34 1        
      16        8        9 1        
      17        9       10 1        
      18       10       11 1        
      19       10       35 1        
      20       10       36 1        
      21       11       12 1        
      22       11       37 1        
      23       11       38 1        
      24       12       13 1        
      25       12       39 1        
      26       12       40 1        
      27       13       14 2        
      28       13       15 1        
      29       15       16 1        
      30       16       17 1        
      31       16       41 1        
      32       16       42 1        
      33       17       18 2        
      34       17       19 am       
      35       19       20 1        
      36       19       43 1        
      37       20       25 ar       
      38       20       21 ar       
      39       21       22 ar       
      40       21       44 1        
      41       22       23 ar       
      42       22       45 1        
      43       23       24 ar       
      44       23       26 1        
      45       24       25 ar       
      46       24       46 1        
      47       25       47 1        
      48       27       28 3        

