#        1GCZ_R01_S0001_C0000_L00003_S0001_C0015_G0010_E0001.mol2
#        Tue Jun  6 09:54:48 2017
#        Descriptor:     20    19    15    10     9    14
#        Energy - RMSD - RMSD MassCentre:     -65.9139    999.9999    999.9999
#        Receptor:       1  Surface Point:     1  Conformer:     0
#        Ligand:         3  Surface Point:     1  Conformer:    15
#        BUDE Formal Charge: 0
#        ATOM Count: 58
#        Heavy ATOM Count: 30
@<TRIPOS>MOLECULE
ZINC61580633_1GCZ_R01_S0001_C0000_L00003_S0001_C0015_G0010_E0001
 58 59 0 0 0
SMALL
USER_CHARGES
@<TRIPOS>ATOM
       1 C1         8.4948    0.6093    8.3697 C.3       1 <0>        -0.1532 
       2 C2         8.2292    0.6258    6.8671 C.3       1 <0>        -0.1224 
       3 C3         7.1874   -0.4376    6.5230 C.3       1 <0>        -0.1198 
       4 C4         5.8842   -0.1296    7.2592 C.3       1 <0>         0.0610 
       5 O1         5.3675    1.1249    6.8072 O.3       1 <0>        -0.3878 
       6 C5         4.1440    1.4669    7.4636 C.3       1 <0>         0.0487 
       7 C6         3.6447    2.8125    6.9393 C.3       1 <0>         0.1244 
       8 N1         2.3870    3.1640    7.6141 N.am      1 <0>        -0.7216 
       9 C7         2.3994    3.5361    8.8910 C.2       1 <0>         0.5161 
      10 O2         3.4624    3.5861    9.5075 O.2       1 <0>        -0.5151 
      11 C8         1.1074    3.8973    9.5842 C.3       1 <0>         0.0490 
      12 O3         0.3171    2.7189    9.7616 O.3       1 <0>        -0.3194 
      13 C9        -0.1070    2.0685    8.6573 C.2       1 <0>         0.5417 
      14 O4         0.1858    2.4895    7.5503 O.2       1 <0>        -0.5337 
      15 C10       -0.9276    0.8441    8.7894 C.2       1 <0>        -0.2559 
      16 C11       -1.3279    0.2409   10.0803 C.2       1 <0>        -0.0791 
      17 C12       -2.0547   -0.8674    9.9203 C.2       1 <0>        -0.2585 
      18 S1        -2.3203   -1.2696    8.2174 S.3       1 <0>         0.3028 
      19 C13       -1.3808    0.1510    7.7360 C.2       1 <0>         0.0893 
      20 N2        -1.1154    0.5281    6.4458 N.am      1 <0>        -0.6099 
      21 C14       -1.5867   -0.1916    5.4315 C.2       1 <0>         0.5551 
      22 O5        -2.2613   -1.1963    5.6518 O.2       1 <0>        -0.4939 
      23 C15       -1.2992    0.2170    4.0384 C.ar      1 <0>        -0.1466 
      24 C16       -1.8122   -0.5711    3.0013 C.ar      1 <0>        -0.0772 
      25 C17       -1.5131   -0.2778    1.6655 C.ar      1 <0>        -0.1241 
      26 C18       -0.6860    0.8042    1.3424 C.ar      1 <0>        -0.0446 
      27 C19       -0.2151    1.6254    2.3738 C.ar      1 <0>        -0.1261 
      28 C20       -0.5405    1.3458    3.7064 C.ar      1 <0>        -0.0460 
      29 C21       -0.3248    1.0668   -0.1002 C.3       1 <0>        -0.0928 
      30 C22        0.9576    0.3161   -0.4472 C.3       1 <0>        -0.1485 
      31 H1         8.8789   -0.3667    8.6587 H         1 <0>         0.0567 
      32 H2         7.5676    0.8072    8.9032 H         1 <0>         0.0554 
      33 H3         9.2267    1.3755    8.6164 H         1 <0>         0.0557 
      34 H4         7.8568    1.6054    6.5747 H         1 <0>         0.0632 
      35 H5         9.1529    0.4139    6.3325 H         1 <0>         0.0635 
      36 H6         7.0064   -0.4354    5.4504 H         1 <0>         0.0711 
      37 H7         7.5527   -1.4161    6.8279 H         1 <0>         0.0704 
      38 H8         5.1583   -0.9142    7.0566 H         1 <0>         0.0498 
      39 H9         6.0749   -0.0783    8.3292 H         1 <0>         0.0505 
      40 H10        4.3142    1.5368    8.5360 H         1 <0>         0.0584 
      41 H11        3.3977    0.7008    7.2634 H         1 <0>         0.0702 
      42 H12        3.4733    2.7436    5.8672 H         1 <0>         0.0872 
      43 H13        4.3898    3.5795    7.1397 H         1 <0>         0.0805 
      44 H14        1.5135    3.1233    7.1088 H         1 <0>         0.4058 
      45 H15        1.3264    4.3359   10.5554 H         1 <0>         0.1008 
      46 H16        0.5577    4.6139    8.9775 H         1 <0>         0.0999 
      47 H17       -1.0608    0.6731   11.0333 H         1 <0>         0.1557 
      48 H18       -2.4427   -1.4378   10.7512 H         1 <0>         0.1929 
      49 H19       -0.5616    1.3530    6.2649 H         1 <0>         0.4317 
      50 H20       -2.4421   -1.4176    3.2318 H         1 <0>         0.1287 
      51 H21       -1.9197   -0.8893    0.8736 H         1 <0>         0.1326 
      52 H22        0.3988    2.4789    2.1267 H         1 <0>         0.1342 
      53 H23       -0.1984    2.0471    4.4531 H         1 <0>         0.1410 
      54 H24       -0.1720    2.1340   -0.2466 H         1 <0>         0.0777 
      55 H25       -1.1321    0.7237   -0.7438 H         1 <0>         0.0771 
      56 H26        0.7997   -0.7519   -0.3124 H         1 <0>         0.0623 
      57 H27        1.7608    0.6499    0.2065 H         1 <0>         0.0572 
      58 H28        1.2251    0.5160   -1.4827 H         1 <0>         0.0578 
@<TRIPOS>BOND
       1        1        2 1        
       2        1       31 1        
       3        1       32 1        
       4        1       33 1        
       5        2        3 1        
       6        2       34 1        
       7        2       35 1        
       8        3        4 1        
       9        3       36 1        
      10        3       37 1        
      11        4        5 1        
      12        4       38 1        
      13        4       39 1        
      14        5        6 1        
      15        6        7 1        
      16        6       40 1        
      17        6       41 1        
      18        7        8 1        
      19        7       42 1        
      20        7       43 1        
      21        8        9 am       
      22        8       44 1        
      23        9       10 2        
      24        9       11 1        
      25       11       12 1        
      26       11       45 1        
      27       11       46 1        
      28       12       13 1        
      29       13       14 2        
      30       13       15 1        
      31       15       19 2        
      32       15       16 1        
      33       16       17 2        
      34       16       47 1        
      35       17       18 1        
      36       17       48 1        
      37       18       19 1        
      38       19       20 1        
      39       20       21 am       
      40       20       49 1        
      41       21       22 2        
      42       21       23 1        
      43       23       28 ar       
      44       23       24 ar       
      45       24       25 ar       
      46       24       50 1        
      47       25       26 ar       
      48       25       51 1        
      49       26       27 ar       
      50       26       29 1        
      51       27       28 ar       
      52       27       52 1        
      53       28       53 1        
      54       29       30 1        
      55       29       54 1        
      56       29       55 1        
      57       30       56 1        
      58       30       57 1        
      59       30       58 1        

