#        1GCZ_R01_S0001_C0000_L00011_S0001_C0032_G0010_E0001.mol2
#        Tue Jun  6 09:58:19 2017
#        Descriptor:      7    20    15    10     4    14
#        Energy - RMSD - RMSD MassCentre:     -65.7076    999.9999    999.9999
#        Receptor:       1  Surface Point:     1  Conformer:     0
#        Ligand:        11  Surface Point:     1  Conformer:    32
#        BUDE Formal Charge: 0
#        ATOM Count: 47
#        Heavy ATOM Count: 28
@<TRIPOS>MOLECULE
ZINC61303593_1GCZ_R01_S0001_C0000_L00011_S0001_C0032_G0010_E0001
 47 48 0 0 0
SMALL
USER_CHARGES
@<TRIPOS>ATOM
       1 C1         4.2217   -0.6324    4.7829 C.3       1 <0>         0.0220 
       2 O1         2.9446   -0.9941    5.3147 O.3       1 <0>        -0.3006 
       3 C2         1.8371   -0.3642    4.8113 C.ar      1 <0>         0.1008 
       4 C3         1.6602   -0.0768    3.4527 C.ar      1 <0>        -0.1273 
       5 C4         0.5037    0.5702    3.0012 C.ar      1 <0>        -0.0284 
       6 C5        -0.4856    0.9337    3.9145 C.ar      1 <0>        -0.0603 
       7 C6        -0.3124    0.6481    5.2740 C.ar      1 <0>        -0.1775 
       8 C7         0.8434    0.0012    5.7272 C.ar      1 <0>         0.1359 
       9 O2         1.0726   -0.3061    7.0424 O.3       1 <0>        -0.2949 
      10 C8        -0.0126   -0.8401    7.8055 C.3       1 <0>         0.0554 
      11 C9        -0.4758   -2.1548    7.1796 C.3       1 <0>        -0.1108 
      12 C10        0.6773   -3.1573    7.1909 C.3       1 <0>        -0.1085 
      13 C11        0.2195   -4.4567    6.5724 C.2       1 <0>         0.4668 
      14 O3        -0.9004   -4.5658    6.1698 O.2       1 <0>        -0.4984 
      15 O4         1.0758   -5.4956    6.4743 O.3       1 <0>        -0.3293 
      16 C12        2.4055   -5.3179    6.9697 C.3       1 <0>         0.0498 
      17 C13        3.1923   -6.5903    6.7646 C.2       1 <0>         0.5168 
      18 O5         4.2858   -6.5543    6.2026 O.2       1 <0>        -0.4913 
      19 N1         2.7025   -7.7507    7.1919 N.am      1 <0>        -0.6701 
      20 C14        3.4386   -8.9438    7.0004 C.ar      1 <0>         0.1579 
      21 C15        4.6840   -8.9025    6.3624 C.ar      1 <0>        -0.1362 
      22 C16        5.4094  -10.0842    6.1685 C.ar      1 <0>        -0.0710 
      23 C17        4.8941  -11.3039    6.6187 C.ar      1 <0>        -0.1038 
      24 C18        3.6497  -11.3447    7.2587 C.ar      1 <0>        -0.0707 
      25 C19        2.9216  -10.1643    7.4508 C.ar      1 <0>        -0.1148 
      26 Br1        5.8794  -12.9069    6.3553 Br        1 <0>        -0.0469 
      27 C20        0.3312    0.8628    1.5916 C.1       1 <0>         0.2541 
      28 N2         0.1926    1.0973    0.4640 N.1       1 <0>        -0.4124 
      29 H1         4.4030    0.4249    4.9643 H         1 <0>         0.1051 
      30 H2         4.9963   -1.2224    5.2683 H         1 <0>         0.0578 
      31 H3         4.2358   -0.8250    3.7122 H         1 <0>         0.0579 
      32 H4         2.3891   -0.3326    2.6979 H         1 <0>         0.1456 
      33 H5        -1.3788    1.4329    3.5689 H         1 <0>         0.1399 
      34 H6        -1.1127    0.9540    5.9315 H         1 <0>         0.1478 
      35 H7         0.3158   -1.0212    8.8268 H         1 <0>         0.0709 
      36 H8        -0.8374   -0.1306    7.8096 H         1 <0>         0.0709 
      37 H9        -1.3096   -2.5557    7.7520 H         1 <0>         0.0878 
      38 H10       -0.7913   -1.9775    6.1537 H         1 <0>         0.0877 
      39 H11        1.5116   -2.7579    6.6182 H         1 <0>         0.1149 
      40 H12        0.9933   -3.3360    8.2165 H         1 <0>         0.1150 
      41 H13        2.3691   -5.0819    8.0311 H         1 <0>         0.1060 
      42 H14        2.8874   -4.5037    6.4328 H         1 <0>         0.1063 
      43 H15        1.8046   -7.7802    7.6533 H         1 <0>         0.4168 
      44 H16        5.0820   -7.9575    6.0232 H         1 <0>         0.1372 
      45 H17        6.3706  -10.0549    5.6772 H         1 <0>         0.1390 
      46 H18        3.2533  -12.2880    7.6041 H         1 <0>         0.1383 
      47 H19        1.9628  -10.1905    7.9470 H         1 <0>         0.1486 
@<TRIPOS>BOND
       1        1        2 1        
       2        1       29 1        
       3        1       30 1        
       4        1       31 1        
       5        2        3 1        
       6        3        8 ar       
       7        3        4 ar       
       8        4        5 ar       
       9        4       32 1        
      10        5        6 ar       
      11        5       27 1        
      12        6        7 ar       
      13        6       33 1        
      14        7        8 ar       
      15        7       34 1        
      16        8        9 1        
      17        9       10 1        
      18       10       11 1        
      19       10       35 1        
      20       10       36 1        
      21       11       12 1        
      22       11       37 1        
      23       11       38 1        
      24       12       13 1        
      25       12       39 1        
      26       12       40 1        
      27       13       14 2        
      28       13       15 1        
      29       15       16 1        
      30       16       17 1        
      31       16       41 1        
      32       16       42 1        
      33       17       18 2        
      34       17       19 am       
      35       19       20 1        
      36       19       43 1        
      37       20       25 ar       
      38       20       21 ar       
      39       21       22 ar       
      40       21       44 1        
      41       22       23 ar       
      42       22       45 1        
      43       23       24 ar       
      44       23       26 1        
      45       24       25 ar       
      46       24       46 1        
      47       25       47 1        
      48       27       28 3        

