#        1GCZ_R01_S0001_C0000_L00011_S0001_C0032_G0010_E0001.mol2
#        Tue Jun  6 14:12:21 2017
#        Descriptor:      7    22    17    11     4    13
#        Energy - RMSD - RMSD MassCentre:     -68.9998    999.9999    999.9999
#        Receptor:       1  Surface Point:     1  Conformer:     0
#        Ligand:        11  Surface Point:     1  Conformer:    32
#        BUDE Formal Charge: 0
#        ATOM Count: 47
#        Heavy ATOM Count: 28
@<TRIPOS>MOLECULE
ZINC61303593_1GCZ_R01_S0001_C0000_L00011_S0001_C0032_G0010_E0001
 47 48 0 0 0
SMALL
USER_CHARGES
@<TRIPOS>ATOM
       1 C1         3.5117   -0.0008    3.7741 C.3       1 <0>         0.0220 
       2 O1         2.6694   -0.8188    4.5903 O.3       1 <0>        -0.3006 
       3 C2         1.3193   -0.5891    4.5530 C.ar      1 <0>         0.1008 
       4 C3         0.6149   -0.3020    3.3779 C.ar      1 <0>        -0.1273 
       5 C4        -0.7665   -0.0766    3.4068 C.ar      1 <0>        -0.0284 
       6 C5        -1.4512   -0.1385    4.6202 C.ar      1 <0>        -0.0603 
       7 C6        -0.7502   -0.4253    5.7976 C.ar      1 <0>        -0.1775 
       8 C7         0.6311   -0.6509    5.7705 C.ar      1 <0>         0.1359 
       9 O2         1.3737   -0.9357    6.8860 O.3       1 <0>        -0.2949 
      10 C8         0.8335   -1.8610    7.8331 C.3       1 <0>         0.0554 
      11 C9         0.6219   -3.2150    7.1574 C.3       1 <0>        -0.1108 
      12 C10        1.9630   -3.7476    6.6550 C.3       1 <0>        -0.1085 
      13 C11        1.7539   -5.0858    5.9872 C.2       1 <0>         0.4668 
      14 O3         0.6576   -5.5571    5.9219 O.2       1 <0>        -0.4984 
      15 O4         2.8060   -5.7502    5.4637 O.3       1 <0>        -0.3293 
      16 C12        4.0984   -5.1467    5.5658 C.3       1 <0>         0.0498 
      17 C13        5.1256   -6.0473    4.9224 C.2       1 <0>         0.5168 
      18 O5         5.8964   -5.5964    4.0765 O.2       1 <0>        -0.4913 
      19 N1         5.1969   -7.3290    5.2705 N.am      1 <0>        -0.6701 
      20 C14        6.1589   -8.1742    4.6685 C.ar      1 <0>         0.1579 
      21 C15        7.0373   -7.6604    3.7071 C.ar      1 <0>        -0.1362 
      22 C16        7.9855   -8.4984    3.1080 C.ar      1 <0>        -0.0710 
      23 C17        8.0603   -9.8458    3.4751 C.ar      1 <0>        -0.1038 
      24 C18        7.1832  -10.3588    4.4381 C.ar      1 <0>        -0.0707 
      25 C19        6.2325   -9.5229    5.0361 C.ar      1 <0>        -0.1148 
      26 Br1        9.3475  -10.9821    2.6617 Br        1 <0>        -0.0469 
      27 C20       -1.4860    0.2200    2.1833 C.1       1 <0>         0.2541 
      28 N2        -2.0621    0.4574    1.2049 N.1       1 <0>        -0.4124 
      29 H1         3.4036    1.0401    4.0717 H         1 <0>         0.1051 
      30 H2         4.5475   -0.3090    3.8999 H         1 <0>         0.0578 
      31 H3         3.2238   -0.1122    2.7309 H         1 <0>         0.0579 
      32 H4         1.0879   -0.2403    2.4089 H         1 <0>         0.1456 
      33 H5        -2.5169    0.0350    4.6454 H         1 <0>         0.1399 
      34 H6        -1.3352   -0.4594    6.7048 H         1 <0>         0.1478 
      35 H7         1.5258   -1.9756    8.6646 H         1 <0>         0.0709 
      36 H8        -0.1194   -1.4879    8.2026 H         1 <0>         0.0709 
      37 H9         0.1992   -3.9164    7.8737 H         1 <0>         0.0878 
      38 H10       -0.0593   -3.0992    6.3171 H         1 <0>         0.0877 
      39 H11        2.3864   -3.0475    5.9380 H         1 <0>         0.1149 
      40 H12        2.6450   -3.8646    7.4945 H         1 <0>         0.1150 
      41 H13        4.3499   -5.0020    6.6143 H         1 <0>         0.1060 
      42 H14        4.0914   -4.1848    5.0577 H         1 <0>         0.1063 
      43 H15        4.5639   -7.6992    5.9651 H         1 <0>         0.4168 
      44 H16        6.9814   -6.6174    3.4321 H         1 <0>         0.1372 
      45 H17        8.6646   -8.1044    2.3666 H         1 <0>         0.1390 
      46 H18        7.2421  -11.4001    4.7188 H         1 <0>         0.1383 
      47 H19        5.5562   -9.9135    5.7820 H         1 <0>         0.1486 
@<TRIPOS>BOND
       1        1        2 1        
       2        1       29 1        
       3        1       30 1        
       4        1       31 1        
       5        2        3 1        
       6        3        8 ar       
       7        3        4 ar       
       8        4        5 ar       
       9        4       32 1        
      10        5        6 ar       
      11        5       27 1        
      12        6        7 ar       
      13        6       33 1        
      14        7        8 ar       
      15        7       34 1        
      16        8        9 1        
      17        9       10 1        
      18       10       11 1        
      19       10       35 1        
      20       10       36 1        
      21       11       12 1        
      22       11       37 1        
      23       11       38 1        
      24       12       13 1        
      25       12       39 1        
      26       12       40 1        
      27       13       14 2        
      28       13       15 1        
      29       15       16 1        
      30       16       17 1        
      31       16       41 1        
      32       16       42 1        
      33       17       18 2        
      34       17       19 am       
      35       19       20 1        
      36       19       43 1        
      37       20       25 ar       
      38       20       21 ar       
      39       21       22 ar       
      40       21       44 1        
      41       22       23 ar       
      42       22       45 1        
      43       23       24 ar       
      44       23       26 1        
      45       24       25 ar       
      46       24       46 1        
      47       25       47 1        
      48       27       28 3        

