#        1GCZ_R01_S0001_C0000_L00011_S0001_C0033_G0010_E0001.mol2
#        Tue Jun  6 09:58:20 2017
#        Descriptor:      2    31    29     8    10    13
#        Energy - RMSD - RMSD MassCentre:     -72.7023    999.9999    999.9999
#        Receptor:       1  Surface Point:     1  Conformer:     0
#        Ligand:        11  Surface Point:     1  Conformer:    33
#        BUDE Formal Charge: 0
#        ATOM Count: 47
#        Heavy ATOM Count: 28
@<TRIPOS>MOLECULE
ZINC61303593_1GCZ_R01_S0001_C0000_L00011_S0001_C0033_G0010_E0001
 47 48 0 0 0
SMALL
USER_CHARGES
@<TRIPOS>ATOM
       1 C1        -1.1341    1.8748   12.0270 C.3       1 <0>         0.0220 
       2 O1        -0.6528    2.0495   10.6918 O.3       1 <0>        -0.3006 
       3 C2        -0.2478    3.3023   10.3136 C.ar      1 <0>         0.1008 
       4 C3         0.4858    4.1615   11.1404 C.ar      1 <0>        -0.1273 
       5 C4         0.8700    5.4316   10.6939 C.ar      1 <0>        -0.0284 
       6 C5         0.5185    5.8481    9.4101 C.ar      1 <0>        -0.0603 
       7 C6        -0.2150    4.9918    8.5804 C.ar      1 <0>        -0.1775 
       8 C7        -0.6000    3.7214    9.0251 C.ar      1 <0>         0.1359 
       9 O2        -1.3176    2.8376    8.2630 O.3       1 <0>        -0.2949 
      10 C8        -0.9549    2.6896    6.8877 C.3       1 <0>         0.0554 
      11 C9         0.4876    2.1944    6.7928 C.3       1 <0>        -0.1108 
      12 C10        0.8752    2.0361    5.3233 C.3       1 <0>        -0.1085 
      13 C11       -0.0337    1.0223    4.6703 C.2       1 <0>         0.4668 
      14 O3        -0.8918    0.4891    5.3088 O.2       1 <0>        -0.4984 
      15 O4         0.1231    0.7180    3.3645 O.3       1 <0>        -0.3293 
      16 C12       -0.7611   -0.2479    2.7900 C.3       1 <0>         0.0498 
      17 C13       -0.4168   -0.4399    1.3323 C.2       1 <0>         0.5168 
      18 O5        -0.2289   -1.5712    0.8878 O.2       1 <0>        -0.4913 
      19 N1        -0.3167    0.6151    0.5286 N.am      1 <0>        -0.6701 
      20 C14        0.0059    0.4368   -0.8375 C.ar      1 <0>         0.1579 
      21 C15        0.2180   -0.8510   -1.3437 C.ar      1 <0>        -0.1362 
      22 C16        0.5423   -1.0264   -2.6944 C.ar      1 <0>        -0.0710 
      23 C17        0.6467    0.0833   -3.5391 C.ar      1 <0>        -0.1038 
      24 C18        0.4324    1.3709   -3.0332 C.ar      1 <0>        -0.0707 
      25 C19        0.1108    1.5483   -1.6821 C.ar      1 <0>        -0.1148 
      26 Br1        1.0866   -0.1557   -5.3719 Br        1 <0>        -0.0469 
      27 C20        1.6297    6.3132   11.5589 C.1       1 <0>         0.2541 
      28 N2         2.2375    7.0189   12.2504 N.1       1 <0>        -0.4124 
      29 H1        -2.0090    2.5027   12.1815 H         1 <0>         0.1051 
      30 H2        -1.4034    0.8320   12.1811 H         1 <0>         0.0578 
      31 H3        -0.3553    2.1569   12.7324 H         1 <0>         0.0579 
      32 H4         0.7876    3.8971   12.1431 H         1 <0>         0.1456 
      33 H5         0.8136    6.8273    9.0633 H         1 <0>         0.1399 
      34 H6        -0.4568    5.3705    7.5983 H         1 <0>         0.1478 
      35 H7        -1.6170    1.9686    6.4130 H         1 <0>         0.0709 
      36 H8        -1.0419    3.6497    6.3835 H         1 <0>         0.0709 
      37 H9         1.1510    2.9150    7.2665 H         1 <0>         0.0878 
      38 H10        0.5759    1.2338    7.2960 H         1 <0>         0.0877 
      39 H11        0.7738    2.9930    4.8157 H         1 <0>         0.1149 
      40 H12        1.9061    1.6956    5.2542 H         1 <0>         0.1150 
      41 H13       -1.7875    0.1026    2.8764 H         1 <0>         0.1060 
      42 H14       -0.6552   -1.1949    3.3148 H         1 <0>         0.1063 
      43 H15       -0.4710    1.5441    0.8936 H         1 <0>         0.4168 
      44 H16        0.1287   -1.7060   -0.6899 H         1 <0>         0.1372 
      45 H17        0.7058   -2.0188   -3.0875 H         1 <0>         0.1390 
      46 H18        0.5150    2.2264   -3.6872 H         1 <0>         0.1383 
      47 H19       -0.0587    2.5394   -1.2882 H         1 <0>         0.1486 
@<TRIPOS>BOND
       1        1        2 1        
       2        1       29 1        
       3        1       30 1        
       4        1       31 1        
       5        2        3 1        
       6        3        8 ar       
       7        3        4 ar       
       8        4        5 ar       
       9        4       32 1        
      10        5        6 ar       
      11        5       27 1        
      12        6        7 ar       
      13        6       33 1        
      14        7        8 ar       
      15        7       34 1        
      16        8        9 1        
      17        9       10 1        
      18       10       11 1        
      19       10       35 1        
      20       10       36 1        
      21       11       12 1        
      22       11       37 1        
      23       11       38 1        
      24       12       13 1        
      25       12       39 1        
      26       12       40 1        
      27       13       14 2        
      28       13       15 1        
      29       15       16 1        
      30       16       17 1        
      31       16       41 1        
      32       16       42 1        
      33       17       18 2        
      34       17       19 am       
      35       19       20 1        
      36       19       43 1        
      37       20       25 ar       
      38       20       21 ar       
      39       21       22 ar       
      40       21       44 1        
      41       22       23 ar       
      42       22       45 1        
      43       23       24 ar       
      44       23       26 1        
      45       24       25 ar       
      46       24       46 1        
      47       25       47 1        
      48       27       28 3        

