#        1GCZ_R01_S0001_C0000_L00011_S0001_C0033_G0010_E0001.mol2
#        Tue Jun  6 14:12:23 2017
#        Descriptor:      2    30    29     8     9    14
#        Energy - RMSD - RMSD MassCentre:     -67.7604    999.9999    999.9999
#        Receptor:       1  Surface Point:     1  Conformer:     0
#        Ligand:        11  Surface Point:     1  Conformer:    33
#        BUDE Formal Charge: 0
#        ATOM Count: 47
#        Heavy ATOM Count: 28
@<TRIPOS>MOLECULE
ZINC61303593_1GCZ_R01_S0001_C0000_L00011_S0001_C0033_G0010_E0001
 47 48 0 0 0
SMALL
USER_CHARGES
@<TRIPOS>ATOM
       1 C1        -0.7153   -0.2757   12.9672 C.3       1 <0>         0.0220 
       2 O1        -0.3134    0.1169   11.6522 O.3       1 <0>        -0.3006 
       3 C2         0.0746    1.4166   11.4601 C.ar      1 <0>         0.1008 
       4 C3         0.8602    2.1330   12.3709 C.ar      1 <0>        -0.1273 
       5 C4         1.2234    3.4607   12.1157 C.ar      1 <0>        -0.0284 
       6 C5         0.7983    4.0794   10.9402 C.ar      1 <0>        -0.0603 
       7 C6         0.0127    3.3663   10.0270 C.ar      1 <0>        -0.1775 
       8 C7        -0.3514    2.0386   10.2805 C.ar      1 <0>         0.1359 
       9 O2        -1.1174    1.2875    9.4283 O.3       1 <0>        -0.2949 
      10 C8        -0.8377    1.3676    8.0282 C.3       1 <0>         0.0554 
      11 C9         0.5941    0.9016    7.7683 C.3       1 <0>        -0.1108 
      12 C10        0.8930    0.9872    6.2723 C.3       1 <0>        -0.1085 
      13 C11       -0.0580    0.0891    5.5178 C.2       1 <0>         0.4668 
      14 O3        -0.8792   -0.5453    6.1105 O.2       1 <0>        -0.4984 
      15 O4         0.0195    0.0027    4.1728 O.3       1 <0>        -0.3293 
      16 C12       -0.9020   -0.8608    3.5020 C.3       1 <0>         0.0498 
      17 C13       -0.6458   -0.8107    2.0147 C.2       1 <0>         0.5168 
      18 O5        -0.4901   -1.8534    1.3811 O.2       1 <0>        -0.4913 
      19 N1        -0.5885    0.3617    1.3893 N.am      1 <0>        -0.6701 
      20 C14       -0.3485    0.4104   -0.0043 C.ar      1 <0>         0.1579 
      21 C15       -0.1731   -0.7766   -0.7255 C.ar      1 <0>        -0.1362 
      22 C16        0.0696   -0.7276   -2.1036 C.ar      1 <0>        -0.0710 
      23 C17        0.1290    0.5056   -2.7605 C.ar      1 <0>        -0.1038 
      24 C18       -0.0485    1.6923   -2.0395 C.ar      1 <0>        -0.0707 
      25 C19       -0.2884    1.6453   -0.6609 C.ar      1 <0>        -0.1148 
      26 Br1        0.4582    0.5710   -4.6306 Br        1 <0>        -0.0469 
      27 C20        2.0374    4.1930   13.0663 C.1       1 <0>         0.2541 
      28 N2         2.6886    4.7794   13.8264 N.1       1 <0>        -0.4124 
      29 H1        -1.5765    0.3143   13.2738 H         1 <0>         0.1051 
      30 H2        -0.9801   -1.3310   12.9648 H         1 <0>         0.0578 
      31 H3         0.1054   -0.1087   13.6616 H         1 <0>         0.0579 
      32 H4         1.2197    1.7099   13.2973 H         1 <0>         0.1456 
      33 H5         1.0770    5.1035   10.7409 H         1 <0>         0.1399 
      34 H6        -0.2852    3.8991    9.1360 H         1 <0>         0.1478 
      35 H7        -1.5304    0.7305    7.4824 H         1 <0>         0.0709 
      36 H8        -0.9498    2.3967    7.6935 H         1 <0>         0.0709 
      37 H9         1.2880    1.5385    8.3130 H         1 <0>         0.0878 
      38 H10        0.7075   -0.1277    8.1018 H         1 <0>         0.0877 
      39 H11        0.7664    2.0136    5.9346 H         1 <0>         0.1149 
      40 H12        1.9163    0.6675    6.0874 H         1 <0>         0.1150 
      41 H13       -1.9197   -0.5341    3.7052 H         1 <0>         0.1060 
      42 H14       -0.7697   -1.8802    3.8580 H         1 <0>         0.1063 
      43 H15       -0.7163    1.2180    1.9096 H         1 <0>         0.4168 
      44 H16       -0.2276   -1.7272   -0.2158 H         1 <0>         0.1372 
      45 H17        0.2046   -1.6418   -2.6623 H         1 <0>         0.1390 
      46 H18       -0.0007    2.6434   -2.5489 H         1 <0>         0.1383 
      47 H19       -0.4295    2.5580   -0.1012 H         1 <0>         0.1486 
@<TRIPOS>BOND
       1        1        2 1        
       2        1       29 1        
       3        1       30 1        
       4        1       31 1        
       5        2        3 1        
       6        3        8 ar       
       7        3        4 ar       
       8        4        5 ar       
       9        4       32 1        
      10        5        6 ar       
      11        5       27 1        
      12        6        7 ar       
      13        6       33 1        
      14        7        8 ar       
      15        7       34 1        
      16        8        9 1        
      17        9       10 1        
      18       10       11 1        
      19       10       35 1        
      20       10       36 1        
      21       11       12 1        
      22       11       37 1        
      23       11       38 1        
      24       12       13 1        
      25       12       39 1        
      26       12       40 1        
      27       13       14 2        
      28       13       15 1        
      29       15       16 1        
      30       16       17 1        
      31       16       41 1        
      32       16       42 1        
      33       17       18 2        
      34       17       19 am       
      35       19       20 1        
      36       19       43 1        
      37       20       25 ar       
      38       20       21 ar       
      39       21       22 ar       
      40       21       44 1        
      41       22       23 ar       
      42       22       45 1        
      43       23       24 ar       
      44       23       26 1        
      45       24       25 ar       
      46       24       46 1        
      47       25       47 1        
      48       27       28 3        

