#        1GCZ_R01_S0001_C0000_L00011_S0001_C0034_G0010_E0001.mol2
#        Tue Jun  6 09:58:21 2017
#        Descriptor:     34    33    31     7     6    14
#        Energy - RMSD - RMSD MassCentre:     -69.6576    999.9999    999.9999
#        Receptor:       1  Surface Point:     1  Conformer:     0
#        Ligand:        11  Surface Point:     1  Conformer:    34
#        BUDE Formal Charge: 0
#        ATOM Count: 47
#        Heavy ATOM Count: 28
@<TRIPOS>MOLECULE
ZINC61303593_1GCZ_R01_S0001_C0000_L00011_S0001_C0034_G0010_E0001
 47 48 0 0 0
SMALL
USER_CHARGES
@<TRIPOS>ATOM
       1 C1        -3.2904   -6.2857   10.1574 C.3       1 <0>         0.0220 
       2 O1        -2.3810   -5.3048    9.6518 O.3       1 <0>        -0.3006 
       3 C2        -1.4527   -5.7054    8.7273 C.ar      1 <0>         0.1008 
       4 C3        -0.7619   -6.9207    8.8001 C.ar      1 <0>        -0.1273 
       5 C4         0.1760   -7.2722    7.8221 C.ar      1 <0>        -0.0284 
       6 C5         0.4268   -6.4021    6.7612 C.ar      1 <0>        -0.0603 
       7 C6        -0.2620   -5.1858    6.6849 C.ar      1 <0>        -0.1775 
       8 C7        -1.2002   -4.8328    7.6621 C.ar      1 <0>         0.1359 
       9 O2        -1.9064   -3.6590    7.6447 O.3       1 <0>        -0.2949 
      10 C8        -1.2049   -2.4591    7.3085 C.3       1 <0>         0.0554 
      11 C9        -2.1720   -1.2767    7.3481 C.3       1 <0>        -0.1108 
      12 C10       -1.4224    0.0054    6.9889 C.3       1 <0>        -0.1085 
      13 C11       -2.3781    1.1739    7.0281 C.2       1 <0>         0.4668 
      14 O3        -3.5259    0.9989    7.3109 O.2       1 <0>        -0.4984 
      15 O4        -1.9355    2.4171    6.7433 O.3       1 <0>        -0.3293 
      16 C12       -0.5541    2.5774    6.4104 C.3       1 <0>         0.0498 
      17 C13       -0.2511    1.8151    5.1427 C.2       1 <0>         0.5168 
      18 O5         0.6888    1.0223    5.1105 O.2       1 <0>        -0.4913 
      19 N1        -1.0009    2.0010    4.0601 N.am      1 <0>        -0.6701 
      20 C14       -0.7183    1.2875    2.8713 C.ar      1 <0>         0.1579 
      21 C15        0.3503    0.3838    2.8355 C.ar      1 <0>        -0.1362 
      22 C16        0.6328   -0.3181    1.6574 C.ar      1 <0>        -0.0710 
      23 C17       -0.1566   -0.1225    0.5197 C.ar      1 <0>        -0.1038 
      24 C18       -1.2265    0.7796    0.5564 C.ar      1 <0>        -0.0707 
      25 C19       -1.5086    1.4844    1.7328 C.ar      1 <0>        -0.1148 
      26 Br1        0.2274   -1.0756   -1.0785 Br        1 <0>        -0.0469 
      27 C20        0.8857   -8.5338    7.9075 C.1       1 <0>         0.2541 
      28 N2         1.4538   -9.5429    7.9752 N.1       1 <0>        -0.4124 
      29 H1        -2.7314   -7.0747   10.6561 H         1 <0>         0.1051 
      30 H2        -3.9699   -5.8178   10.8667 H         1 <0>         0.0578 
      31 H3        -3.8607   -6.7094    9.3334 H         1 <0>         0.0579 
      32 H4        -0.9117   -7.6356    9.5957 H         1 <0>         0.1456 
      33 H5         1.1498   -6.6708    6.0052 H         1 <0>         0.1399 
      34 H6        -0.0248   -4.5552    5.8408 H         1 <0>         0.1478 
      35 H7        -0.4025   -2.2946    8.0245 H         1 <0>         0.0709 
      36 H8        -0.7863   -2.5511    6.3085 H         1 <0>         0.0709 
      37 H9        -2.9745   -1.4396    6.6319 H         1 <0>         0.0878 
      38 H10       -2.5907   -1.1832    8.3479 H         1 <0>         0.0877 
      39 H11       -0.6200    0.1699    7.7049 H         1 <0>         0.1149 
      40 H12       -1.0038   -0.0865    5.9890 H         1 <0>         0.1150 
      41 H13        0.0618    2.1924    7.2203 H         1 <0>         0.1060 
      42 H14       -0.3371    3.6327    6.2589 H         1 <0>         0.1063 
      43 H15       -1.7727    2.6521    4.0864 H         1 <0>         0.4168 
      44 H16        0.9527    0.2298    3.7186 H         1 <0>         0.1372 
      45 H17        1.4561   -1.0161    1.6273 H         1 <0>         0.1390 
      46 H18       -1.8337    0.9299   -0.3240 H         1 <0>         0.1383 
      47 H19       -2.3350    2.1788    1.7668 H         1 <0>         0.1486 
@<TRIPOS>BOND
       1        1        2 1        
       2        1       29 1        
       3        1       30 1        
       4        1       31 1        
       5        2        3 1        
       6        3        8 ar       
       7        3        4 ar       
       8        4        5 ar       
       9        4       32 1        
      10        5        6 ar       
      11        5       27 1        
      12        6        7 ar       
      13        6       33 1        
      14        7        8 ar       
      15        7       34 1        
      16        8        9 1        
      17        9       10 1        
      18       10       11 1        
      19       10       35 1        
      20       10       36 1        
      21       11       12 1        
      22       11       37 1        
      23       11       38 1        
      24       12       13 1        
      25       12       39 1        
      26       12       40 1        
      27       13       14 2        
      28       13       15 1        
      29       15       16 1        
      30       16       17 1        
      31       16       41 1        
      32       16       42 1        
      33       17       18 2        
      34       17       19 am       
      35       19       20 1        
      36       19       43 1        
      37       20       25 ar       
      38       20       21 ar       
      39       21       22 ar       
      40       21       44 1        
      41       22       23 ar       
      42       22       45 1        
      43       23       24 ar       
      44       23       26 1        
      45       24       25 ar       
      46       24       46 1        
      47       25       47 1        
      48       27       28 3        

