#        1GCZ_R01_S0001_C0000_L00011_S0001_C0035_G0010_E0001.mol2
#        Tue Jun  6 09:58:22 2017
#        Descriptor:      2    31    28     7    11    13
#        Energy - RMSD - RMSD MassCentre:     -72.7171    999.9999    999.9999
#        Receptor:       1  Surface Point:     1  Conformer:     0
#        Ligand:        11  Surface Point:     1  Conformer:    35
#        BUDE Formal Charge: 0
#        ATOM Count: 47
#        Heavy ATOM Count: 28
@<TRIPOS>MOLECULE
ZINC61303593_1GCZ_R01_S0001_C0000_L00011_S0001_C0035_G0010_E0001
 47 48 0 0 0
SMALL
USER_CHARGES
@<TRIPOS>ATOM
       1 C1        -2.6488    4.7618   12.0498 C.3       1 <0>         0.0220 
       2 O1        -2.6202    4.5935   10.6301 O.3       1 <0>        -0.3006 
       3 C2        -1.9186    5.5072    9.8888 C.ar      1 <0>         0.1008 
       4 C3        -1.9234    6.8828   10.1486 C.ar      1 <0>        -0.1273 
       5 C4        -1.1839    7.7656    9.3526 C.ar      1 <0>        -0.0284 
       6 C5        -0.4325    7.2706    8.2868 C.ar      1 <0>        -0.0603 
       7 C6        -0.4252    5.8957    8.0238 C.ar      1 <0>        -0.1775 
       8 C7        -1.1640    5.0115    8.8188 C.ar      1 <0>         0.1359 
       9 O2        -1.1986    3.6574    8.6139 O.3       1 <0>        -0.2949 
      10 C8        -1.3184    3.1853    7.2694 C.3       1 <0>         0.0554 
      11 C9        -1.3380    1.6574    7.2668 C.3       1 <0>        -0.1108 
      12 C10       -1.4659    1.1530    5.8302 C.3       1 <0>        -0.1085 
      13 C11       -0.2811    1.6282    5.0234 C.2       1 <0>         0.4668 
      14 O3         0.5665    2.2935    5.5402 O.2       1 <0>        -0.4984 
      15 O4        -0.1795    1.3013    3.7176 O.3       1 <0>        -0.3293 
      16 C12       -1.2181    0.5037    3.1431 C.3       1 <0>         0.0498 
      17 C13       -0.9123    0.2548    1.6854 C.2       1 <0>         0.5168 
      18 O5        -0.9237   -0.8920    1.2409 O.2       1 <0>        -0.4913 
      19 N1        -0.6305    1.2763    0.8817 N.am      1 <0>        -0.6701 
      20 C14       -0.3438    1.0447   -0.4845 C.ar      1 <0>         0.1579 
      21 C15       -0.3586   -0.2604   -0.9906 C.ar      1 <0>        -0.1362 
      22 C16       -0.0696   -0.4894   -2.3413 C.ar      1 <0>        -0.0710 
      23 C17        0.2259    0.5853   -3.1860 C.ar      1 <0>        -0.1038 
      24 C18        0.2384    1.8906   -2.6801 C.ar      1 <0>        -0.0707 
      25 C19       -0.0474    2.1211   -1.3290 C.ar      1 <0>        -0.1148 
      26 Br1        0.6177    0.2736   -5.0188 Br        1 <0>        -0.0469 
      27 C20       -1.1962    9.1885    9.6309 C.1       1 <0>         0.2541 
      28 N2        -1.2057   10.3271    9.8532 N.1       1 <0>        -0.4124 
      29 H1        -3.1064    5.7188   12.2918 H         1 <0>         0.1051 
      30 H2        -3.2290    3.9580   12.4981 H         1 <0>         0.0578 
      31 H3        -1.6327    4.7364   12.4379 H         1 <0>         0.0579 
      32 H4        -2.4844    7.3264   10.9579 H         1 <0>         0.1456 
      33 H5         0.1388    7.9495    7.6711 H         1 <0>         0.1399 
      34 H6         0.1751    5.5734    7.1858 H         1 <0>         0.1478 
      35 H7        -2.2422    3.5600    6.8337 H         1 <0>         0.0709 
      36 H8        -0.4717    3.5374    6.6839 H         1 <0>         0.0709 
      37 H9        -0.4143    1.2815    7.7016 H         1 <0>         0.0878 
      38 H10       -2.1848    1.3040    7.8514 H         1 <0>         0.0877 
      39 H11       -1.4927    0.0654    5.8280 H         1 <0>         0.1149 
      40 H12       -2.3825    1.5397    5.3896 H         1 <0>         0.1150 
      41 H13       -2.1680    1.0270    3.2295 H         1 <0>         0.1060 
      42 H14       -1.2782   -0.4474    3.6678 H         1 <0>         0.1063 
      43 H15       -0.6212    2.2180    1.2467 H         1 <0>         0.4168 
      44 H16       -0.5950   -1.0869   -0.3368 H         1 <0>         0.1372 
      45 H17       -0.0809   -1.4951   -2.7344 H         1 <0>         0.1390 
      46 H18        0.4684    2.7187   -3.3341 H         1 <0>         0.1383 
      47 H19       -0.0423    3.1266   -0.9351 H         1 <0>         0.1486 
@<TRIPOS>BOND
       1        1        2 1        
       2        1       29 1        
       3        1       30 1        
       4        1       31 1        
       5        2        3 1        
       6        3        8 ar       
       7        3        4 ar       
       8        4        5 ar       
       9        4       32 1        
      10        5        6 ar       
      11        5       27 1        
      12        6        7 ar       
      13        6       33 1        
      14        7        8 ar       
      15        7       34 1        
      16        8        9 1        
      17        9       10 1        
      18       10       11 1        
      19       10       35 1        
      20       10       36 1        
      21       11       12 1        
      22       11       37 1        
      23       11       38 1        
      24       12       13 1        
      25       12       39 1        
      26       12       40 1        
      27       13       14 2        
      28       13       15 1        
      29       15       16 1        
      30       16       17 1        
      31       16       41 1        
      32       16       42 1        
      33       17       18 2        
      34       17       19 am       
      35       19       20 1        
      36       19       43 1        
      37       20       25 ar       
      38       20       21 ar       
      39       21       22 ar       
      40       21       44 1        
      41       22       23 ar       
      42       22       45 1        
      43       23       24 ar       
      44       23       26 1        
      45       24       25 ar       
      46       24       46 1        
      47       25       47 1        
      48       27       28 3        

