#        1GCZ_R01_S0001_C0000_L00011_S0001_C0035_G0010_E0001.mol2
#        Tue Jun  6 14:12:27 2017
#        Descriptor:     35     7     9     8    10    13
#        Energy - RMSD - RMSD MassCentre:     -66.5467    999.9999    999.9999
#        Receptor:       1  Surface Point:     1  Conformer:     0
#        Ligand:        11  Surface Point:     1  Conformer:    35
#        BUDE Formal Charge: 0
#        ATOM Count: 47
#        Heavy ATOM Count: 28
@<TRIPOS>MOLECULE
ZINC61303593_1GCZ_R01_S0001_C0000_L00011_S0001_C0035_G0010_E0001
 47 48 0 0 0
SMALL
USER_CHARGES
@<TRIPOS>ATOM
       1 C1        -0.3502   -3.3383   -0.1868 C.3       1 <0>         0.0220 
       2 O1         0.0416   -2.2930    0.7069 O.3       1 <0>        -0.3006 
       3 C2        -0.1580   -0.9979    0.3076 C.ar      1 <0>         0.1008 
       4 C3         0.0749   -0.5448   -0.9962 C.ar      1 <0>        -0.1273 
       5 C4        -0.1488    0.7934   -1.3412 C.ar      1 <0>        -0.0284 
       6 C5        -0.6094    1.6880   -0.3754 C.ar      1 <0>        -0.0603 
       7 C6        -0.8435    1.2388    0.9297 C.ar      1 <0>        -0.1775 
       8 C7        -0.6203   -0.0991    1.2764 C.ar      1 <0>         0.1359 
       9 O2        -0.8298   -0.6004    2.5340 O.3       1 <0>        -0.2949 
      10 C8        -0.3946    0.1821    3.6490 C.3       1 <0>         0.0554 
      11 C9        -0.7223   -0.5555    4.9465 C.3       1 <0>        -0.1108 
      12 C10       -0.2574    0.2805    6.1379 C.3       1 <0>        -0.1085 
      13 C11       -0.9796    1.6068    6.1336 C.2       1 <0>         0.4668 
      14 O3        -1.7741    1.8525    5.2754 O.2       1 <0>        -0.4984 
      15 O4        -0.7275    2.5153    7.0997 O.3       1 <0>        -0.3293 
      16 C12        0.2311    2.1765    8.1053 C.3       1 <0>         0.0498 
      17 C13        0.3620    3.3217    9.0807 C.2       1 <0>         0.5168 
      18 O5         0.2552    3.1169   10.2889 O.2       1 <0>        -0.4913 
      19 N1         0.5930    4.5527    8.6332 N.am      1 <0>        -0.6701 
      20 C14        0.7159    5.6269    9.5460 C.ar      1 <0>         0.1579 
      21 C15        0.5961    5.3933   10.9211 C.ar      1 <0>        -0.1362 
      22 C16        0.7126    6.4575   11.8234 C.ar      1 <0>        -0.0710 
      23 C17        0.9562    7.7515   11.3522 C.ar      1 <0>        -0.1038 
      24 C18        1.0781    7.9845    9.9772 C.ar      1 <0>        -0.0707 
      25 C19        0.9590    6.9219    9.0732 C.ar      1 <0>        -0.1148 
      26 Br1        1.1143    9.1949   12.5775 Br        1 <0>        -0.0469 
      27 C20        0.0957    1.2516   -2.6950 C.1       1 <0>         0.2541 
      28 N2         0.2912    1.6188   -3.7779 N.1       1 <0>        -0.4124 
      29 H1         0.2097   -3.2494   -1.1154 H         1 <0>         0.1051 
      30 H2        -0.1432   -4.3030    0.2715 H         1 <0>         0.0578 
      31 H3        -1.4149   -3.2562   -0.3953 H         1 <0>         0.0579 
      32 H4         0.4312   -1.1880   -1.7874 H         1 <0>         0.1456 
      33 H5        -0.7829    2.7209   -0.6388 H         1 <0>         0.1399 
      34 H6        -1.1992    1.9780    1.6321 H         1 <0>         0.1478 
      35 H7         0.6798    0.3409    3.5843 H         1 <0>         0.0709 
      36 H8        -0.9050    1.1428    3.6399 H         1 <0>         0.0709 
      37 H9        -1.7966   -0.7143    5.0128 H         1 <0>         0.0878 
      38 H10       -0.2118   -1.5162    4.9571 H         1 <0>         0.0877 
      39 H11       -0.4788   -0.2492    7.0620 H         1 <0>         0.1149 
      40 H12        0.8146    0.4518    6.0654 H         1 <0>         0.1150 
      41 H13        1.1953    1.9864    7.6387 H         1 <0>         0.1060 
      42 H14       -0.0980    1.2853    8.6354 H         1 <0>         0.1063 
      43 H15        0.6807    4.7209    7.6412 H         1 <0>         0.4168 
      44 H16        0.4159    4.3913   11.2815 H         1 <0>         0.1372 
      45 H17        0.6212    6.2799   12.8847 H         1 <0>         0.1390 
      46 H18        1.2648    8.9849    9.6157 H         1 <0>         0.1383 
      47 H19        1.0558    7.0963    8.0119 H         1 <0>         0.1486 
@<TRIPOS>BOND
       1        1        2 1        
       2        1       29 1        
       3        1       30 1        
       4        1       31 1        
       5        2        3 1        
       6        3        8 ar       
       7        3        4 ar       
       8        4        5 ar       
       9        4       32 1        
      10        5        6 ar       
      11        5       27 1        
      12        6        7 ar       
      13        6       33 1        
      14        7        8 ar       
      15        7       34 1        
      16        8        9 1        
      17        9       10 1        
      18       10       11 1        
      19       10       35 1        
      20       10       36 1        
      21       11       12 1        
      22       11       37 1        
      23       11       38 1        
      24       12       13 1        
      25       12       39 1        
      26       12       40 1        
      27       13       14 2        
      28       13       15 1        
      29       15       16 1        
      30       16       17 1        
      31       16       41 1        
      32       16       42 1        
      33       17       18 2        
      34       17       19 am       
      35       19       20 1        
      36       19       43 1        
      37       20       25 ar       
      38       20       21 ar       
      39       21       22 ar       
      40       21       44 1        
      41       22       23 ar       
      42       22       45 1        
      43       23       24 ar       
      44       23       26 1        
      45       24       25 ar       
      46       24       46 1        
      47       25       47 1        
      48       27       28 3        

