#        1GCZ_R01_S0001_C0000_L00011_S0001_C0036_G0010_E0001.mol2
#        Tue Jun  6 09:58:22 2017
#        Descriptor:     36    30    31     7     9    14
#        Energy - RMSD - RMSD MassCentre:     -63.5599    999.9999    999.9999
#        Receptor:       1  Surface Point:     1  Conformer:     0
#        Ligand:        11  Surface Point:     1  Conformer:    36
#        BUDE Formal Charge: 0
#        ATOM Count: 47
#        Heavy ATOM Count: 28
@<TRIPOS>MOLECULE
ZINC61303593_1GCZ_R01_S0001_C0000_L00011_S0001_C0036_G0010_E0001
 47 48 0 0 0
SMALL
USER_CHARGES
@<TRIPOS>ATOM
       1 C1        -1.1752    1.5474   13.4291 C.3       1 <0>         0.0220 
       2 O1        -0.9935    1.7485   12.0251 O.3       1 <0>        -0.3006 
       3 C2        -2.0251    2.3065   11.3172 C.ar      1 <0>         0.1008 
       4 C3        -2.8098    3.3629   11.7946 C.ar      1 <0>        -0.1273 
       5 C4        -3.8510    3.8895   11.0212 C.ar      1 <0>        -0.0284 
       6 C5        -4.1116    3.3565    9.7589 C.ar      1 <0>        -0.0603 
       7 C6        -3.3292    2.3000    9.2778 C.ar      1 <0>        -0.1775 
       8 C7        -2.2875    1.7722   10.0500 C.ar      1 <0>         0.1359 
       9 O2        -1.4866    0.7403    9.6370 O.3       1 <0>        -0.2949 
      10 C8        -1.0187    0.7538    8.2858 C.3       1 <0>         0.0554 
      11 C9        -0.1490   -0.4776    8.0366 C.3       1 <0>        -0.1108 
      12 C10        0.3509   -0.4633    6.5929 C.3       1 <0>        -0.1085 
      13 C11       -0.8297   -0.4999    5.6519 C.2       1 <0>         0.4668 
      14 O3        -1.9417   -0.5335    6.0883 O.2       1 <0>        -0.4984 
      15 O4        -0.6287   -0.4945    4.3170 O.3       1 <0>        -0.3293 
      16 C12        0.7195   -0.4537    3.8419 C.3       1 <0>         0.0498 
      17 C13        0.7202   -0.4546    2.3319 C.2       1 <0>         0.5168 
      18 O5         1.4049   -1.2705    1.7169 O.2       1 <0>        -0.4913 
      19 N1        -0.0200    0.4276    1.6664 N.am      1 <0>        -0.6701 
      20 C14       -0.0204    0.4281    0.2515 C.ar      1 <0>         0.1579 
      21 C15        0.7576   -0.5019   -0.4484 C.ar      1 <0>        -0.1362 
      22 C16        0.7609   -0.4976   -1.8485 C.ar      1 <0>        -0.0710 
      23 C17       -0.0183    0.4299   -2.5475 C.ar      1 <0>        -0.1038 
      24 C18       -0.7978    1.3583   -1.8474 C.ar      1 <0>        -0.0707 
      25 C19       -0.8001    1.3573   -0.4474 C.ar      1 <0>        -0.1148 
      26 Br1       -0.0133    0.4349   -4.4474 Br        1 <0>        -0.0469 
      27 C20       -4.6574    4.9838   11.5259 C.1       1 <0>         0.2541 
      28 N2        -5.3028    5.8593   11.9291 N.1       1 <0>        -0.4124 
      29 H1        -2.0141    0.8744   13.5930 H         1 <0>         0.1051 
      30 H2        -0.2722    1.1123   13.8524 H         1 <0>         0.0578 
      31 H3        -1.3770    2.5030   13.9086 H         1 <0>         0.0579 
      32 H4        -2.6576    3.8176   12.7624 H         1 <0>         0.1456 
      33 H5        -4.9143    3.7608    9.1601 H         1 <0>         0.1399 
      34 H6        -3.5792    1.9303    8.2944 H         1 <0>         0.1478 
      35 H7        -1.8687    0.7400    7.6068 H         1 <0>         0.0709 
      36 H8        -0.4309    1.6530    8.1138 H         1 <0>         0.0709 
      37 H9         0.7018   -0.4647    8.7145 H         1 <0>         0.0878 
      38 H10       -0.7359   -1.3776    8.2076 H         1 <0>         0.0877 
      39 H11        0.9263    0.4431    6.4166 H         1 <0>         0.1149 
      40 H12        0.9806   -1.3330    6.4177 H         1 <0>         0.1150 
      41 H13        1.2591   -1.3258    4.2047 H         1 <0>         0.1060 
      42 H14        1.2048    0.4504    4.2036 H         1 <0>         0.1063 
      43 H15       -0.5822    1.0976    2.1714 H         1 <0>         0.4168 
      44 H16        1.3518   -1.2216    0.0952 H         1 <0>         0.1372 
      45 H17        1.3597   -1.2143   -2.3906 H         1 <0>         0.1390 
      46 H18       -1.3975    2.0744   -2.3896 H         1 <0>         0.1383 
      47 H19       -1.4026    2.0694    0.0969 H         1 <0>         0.1486 
@<TRIPOS>BOND
       1        1        2 1        
       2        1       29 1        
       3        1       30 1        
       4        1       31 1        
       5        2        3 1        
       6        3        8 ar       
       7        3        4 ar       
       8        4        5 ar       
       9        4       32 1        
      10        5        6 ar       
      11        5       27 1        
      12        6        7 ar       
      13        6       33 1        
      14        7        8 ar       
      15        7       34 1        
      16        8        9 1        
      17        9       10 1        
      18       10       11 1        
      19       10       35 1        
      20       10       36 1        
      21       11       12 1        
      22       11       37 1        
      23       11       38 1        
      24       12       13 1        
      25       12       39 1        
      26       12       40 1        
      27       13       14 2        
      28       13       15 1        
      29       15       16 1        
      30       16       17 1        
      31       16       41 1        
      32       16       42 1        
      33       17       18 2        
      34       17       19 am       
      35       19       20 1        
      36       19       43 1        
      37       20       25 ar       
      38       20       21 ar       
      39       21       22 ar       
      40       21       44 1        
      41       22       23 ar       
      42       22       45 1        
      43       23       24 ar       
      44       23       26 1        
      45       24       25 ar       
      46       24       46 1        
      47       25       47 1        
      48       27       28 3        

