#        1GCZ_R01_S0001_C0000_L00011_S0001_C0036_G0010_E0001.mol2
#        Tue Jun  6 14:12:29 2017
#        Descriptor:     35    30    28     8    10    14
#        Energy - RMSD - RMSD MassCentre:     -65.0198    999.9999    999.9999
#        Receptor:       1  Surface Point:     1  Conformer:     0
#        Ligand:        11  Surface Point:     1  Conformer:    36
#        BUDE Formal Charge: 0
#        ATOM Count: 47
#        Heavy ATOM Count: 28
@<TRIPOS>MOLECULE
ZINC61303593_1GCZ_R01_S0001_C0000_L00011_S0001_C0036_G0010_E0001
 47 48 0 0 0
SMALL
USER_CHARGES
@<TRIPOS>ATOM
       1 C1         0.6621    2.7336   13.3855 C.3       1 <0>         0.0220 
       2 O1         0.7850    2.8243   11.9638 O.3       1 <0>        -0.3006 
       3 C2        -0.0307    3.7046   11.3032 C.ar      1 <0>         0.1008 
       4 C3        -0.3369    4.9844   11.7807 C.ar      1 <0>        -0.1273 
       5 C4        -1.1785    5.8375   11.0571 C.ar      1 <0>        -0.0284 
       6 C5        -1.7197    5.4091    9.8451 C.ar      1 <0>        -0.0603 
       7 C6        -1.4159    4.1300    9.3641 C.ar      1 <0>        -0.1775 
       8 C7        -0.5745    3.2756   10.0865 C.ar      1 <0>         0.1359 
       9 O2        -0.2389    2.0141    9.6708 O.3       1 <0>        -0.2949 
      10 C8         0.0864    1.8269    8.2910 C.3       1 <0>         0.0554 
      11 C9         0.4275    0.3581    8.0437 C.3       1 <0>        -0.1108 
      12 C10        0.7751    0.1581    6.5693 C.3       1 <0>        -0.1085 
      13 C11       -0.4136    0.5341    5.7173 C.2       1 <0>         0.4668 
      14 O3        -1.4215    0.9176    6.2324 O.2       1 <0>        -0.4984 
      15 O4        -0.3377    0.4371    4.3730 O.3       1 <0>        -0.3293 
      16 C12        0.8887   -0.0266    3.8022 C.3       1 <0>         0.0498 
      17 C13        0.7617   -0.0603    2.2980 C.2       1 <0>         0.5168 
      18 O5         1.0504   -1.0828    1.6783 O.2       1 <0>        -0.4913 
      19 N1         0.3373    1.0164    1.6426 N.am      1 <0>        -0.6701 
      20 C14        0.2178    0.9865    0.2330 C.ar      1 <0>         0.1579 
      21 C15        0.5447   -0.1779   -0.4720 C.ar      1 <0>        -0.1362 
      22 C16        0.4312   -0.2053   -1.8672 C.ar      1 <0>        -0.0710 
      23 C17       -0.0157    0.9271   -2.5555 C.ar      1 <0>        -0.1038 
      24 C18       -0.3447    2.0907   -1.8501 C.ar      1 <0>        -0.0707 
      25 C19       -0.2291    2.1207   -0.4552 C.ar      1 <0>        -0.1148 
      26 Br1       -0.1696    0.8890   -4.4488 Br        1 <0>        -0.0469 
      27 C20       -1.4889    7.1611   11.5614 C.1       1 <0>         0.2541 
      28 N2        -1.7375    8.2201   11.9643 N.1       1 <0>        -0.4124 
      29 H1        -0.3465    2.4164   13.6422 H         1 <0>         0.1051 
      30 H2         1.3788    2.0085   13.7654 H         1 <0>         0.0578 
      31 H3         0.8607    3.7071   13.8289 H         1 <0>         0.0579 
      32 H4         0.0504    5.3731   12.7110 H         1 <0>         0.1456 
      33 H5        -2.3693    6.0653    9.2848 H         1 <0>         0.1399 
      34 H6        -1.8648    3.8559    8.4209 H         1 <0>         0.1478 
      35 H7        -0.7651    2.1093    7.6754 H         1 <0>         0.0709 
      36 H8         0.9429    2.4460    8.0324 H         1 <0>         0.0709 
      37 H9         1.2794    0.0746    8.6582 H         1 <0>         0.0878 
      38 H10       -0.4285   -0.2620    8.3012 H         1 <0>         0.0877 
      39 H11        1.6223    0.7883    6.3071 H         1 <0>         0.1149 
      40 H12        1.0304   -0.8849    6.3944 H         1 <0>         0.1150 
      41 H13        1.1050   -1.0275    4.1698 H         1 <0>         0.1060 
      42 H14        1.6968    0.6458    4.0823 H         1 <0>         0.1063 
      43 H15        0.1002    1.8561    2.1515 H         1 <0>         0.4168 
      44 H16        0.8820   -1.0528    0.0640 H         1 <0>         0.1372 
      45 H17        0.6822   -1.1024   -2.4133 H         1 <0>         0.1390 
      46 H18       -0.6883    2.9643   -2.3842 H         1 <0>         0.1383 
      47 H19       -0.4850    3.0150    0.0935 H         1 <0>         0.1486 
@<TRIPOS>BOND
       1        1        2 1        
       2        1       29 1        
       3        1       30 1        
       4        1       31 1        
       5        2        3 1        
       6        3        8 ar       
       7        3        4 ar       
       8        4        5 ar       
       9        4       32 1        
      10        5        6 ar       
      11        5       27 1        
      12        6        7 ar       
      13        6       33 1        
      14        7        8 ar       
      15        7       34 1        
      16        8        9 1        
      17        9       10 1        
      18       10       11 1        
      19       10       35 1        
      20       10       36 1        
      21       11       12 1        
      22       11       37 1        
      23       11       38 1        
      24       12       13 1        
      25       12       39 1        
      26       12       40 1        
      27       13       14 2        
      28       13       15 1        
      29       15       16 1        
      30       16       17 1        
      31       16       41 1        
      32       16       42 1        
      33       17       18 2        
      34       17       19 am       
      35       19       20 1        
      36       19       43 1        
      37       20       25 ar       
      38       20       21 ar       
      39       21       22 ar       
      40       21       44 1        
      41       22       23 ar       
      42       22       45 1        
      43       23       24 ar       
      44       23       26 1        
      45       24       25 ar       
      46       24       46 1        
      47       25       47 1        
      48       27       28 3        

