#        1GCZ_R01_S0001_C0000_L00003_S0001_C0015_G0010_E0001.mol2
#        Tue Jun  6 14:03:56 2017
#        Descriptor:     16    31    21    11     7    14
#        Energy - RMSD - RMSD MassCentre:     -54.0633    999.9999    999.9999
#        Receptor:       1  Surface Point:     1  Conformer:     0
#        Ligand:         3  Surface Point:     1  Conformer:    15
#        BUDE Formal Charge: 0
#        ATOM Count: 58
#        Heavy ATOM Count: 30
@<TRIPOS>MOLECULE
ZINC61580633_1GCZ_R01_S0001_C0000_L00003_S0001_C0015_G0010_E0001
 58 59 0 0 0
SMALL
USER_CHARGES
@<TRIPOS>ATOM
       1 C1        -1.6915    1.3468    1.4797 C.3       1 <0>        -0.1532 
       2 C2        -1.8944   -0.0042    2.1597 C.3       1 <0>        -0.1224 
       3 C3        -0.6327   -0.8504    1.9962 C.3       1 <0>        -0.1198 
       4 C4         0.5469   -0.1369    2.6554 C.3       1 <0>         0.0610 
       5 O1         0.3041   -0.0136    4.0593 O.3       1 <0>        -0.3878 
       6 C5         1.3784    0.6488    4.7315 C.3       1 <0>         0.0487 
       7 C6         1.0602    0.7493    6.2226 C.3       1 <0>         0.1244 
       8 N1         2.1646    1.4301    6.9136 N.am      1 <0>        -0.7216 
       9 C7         2.3475    2.7370    6.7472 C.2       1 <0>         0.5161 
      10 O2         1.5933    3.3761    6.0155 O.2       1 <0>        -0.5151 
      11 C8         3.4820    3.4364    7.4570 C.3       1 <0>         0.0490 
      12 O3         4.7268    3.0204    6.8896 O.3       1 <0>        -0.3194 
      13 C9         5.0662    1.7179    6.9933 C.2       1 <0>         0.5417 
      14 O4         4.3196    0.9352    7.5578 O.2       1 <0>        -0.5337 
      15 C10        6.3445    1.2389    6.4219 C.2       1 <0>        -0.2559 
      16 C11        7.3148    2.0978    5.7069 C.2       1 <0>        -0.0791 
      17 C12        8.3799    1.4156    5.2797 C.2       1 <0>        -0.2585 
      18 S1         8.3063   -0.3010    5.7044 S.3       1 <0>         0.3028 
      19 C13        6.7418   -0.0390    6.4895 C.2       1 <0>         0.0893 
      20 N2         5.9867   -1.0065    7.0986 N.am      1 <0>        -0.6099 
      21 C14        6.4222   -2.2624    7.1412 C.2       1 <0>         0.5551 
      22 O5         7.5035   -2.5556    6.6336 O.2       1 <0>        -0.4939 
      23 C15        5.6054   -3.3063    7.7995 C.ar      1 <0>        -0.1466 
      24 C16        6.1004   -4.6158    7.8187 C.ar      1 <0>        -0.0772 
      25 C17        5.3409   -5.6592    8.3610 C.ar      1 <0>        -0.1241 
      26 C18        4.0665   -5.4139    8.8856 C.ar      1 <0>        -0.0446 
      27 C19        3.5911   -4.0974    8.9160 C.ar      1 <0>        -0.1261 
      28 C20        4.3661   -3.0523    8.3991 C.ar      1 <0>        -0.0460 
      29 C21        3.2378   -6.5625    9.4093 C.3       1 <0>        -0.0928 
      30 C22        2.3812   -7.1270    8.2797 C.3       1 <0>        -0.1485 
      31 H1        -1.5049    1.1938    0.4189 H         1 <0>         0.0567 
      32 H2        -0.8401    1.8537    1.9288 H         1 <0>         0.0554 
      33 H3        -2.5849    1.9542    1.6077 H         1 <0>         0.0557 
      34 H4        -2.0935    0.1481    3.2184 H         1 <0>         0.0632 
      35 H5        -2.7369   -0.5184    1.7020 H         1 <0>         0.0635 
      36 H6        -0.7806   -1.8185    2.4697 H         1 <0>         0.0711 
      37 H7        -0.4246   -0.9916    0.9376 H         1 <0>         0.0704 
      38 H8         1.4558   -0.7129    2.4945 H         1 <0>         0.0498 
      39 H9         0.6621    0.8533    2.2195 H         1 <0>         0.0505 
      40 H10        1.5035    1.6481    4.3199 H         1 <0>         0.0584 
      41 H11        2.2971    0.0820    4.5948 H         1 <0>         0.0702 
      42 H12        0.9358   -0.2495    6.6356 H         1 <0>         0.0872 
      43 H13        0.1421    1.3165    6.3606 H         1 <0>         0.0805 
      44 H14        2.7845    0.9063    7.5146 H         1 <0>         0.4058 
      45 H15        3.3737    4.5129    7.3423 H         1 <0>         0.1008 
      46 H16        3.4622    3.1799    8.5141 H         1 <0>         0.0999 
      47 H17        7.1633    3.1581    5.5686 H         1 <0>         0.1557 
      48 H18        9.1961    1.8790    4.7457 H         1 <0>         0.1929 
      49 H19        5.0989   -0.7658    7.5154 H         1 <0>         0.4317 
      50 H20        7.0764   -4.8265    7.4072 H         1 <0>         0.1287 
      51 H21        5.7357   -6.6642    8.3759 H         1 <0>         0.1326 
      52 H22        2.6209   -3.8994    9.3472 H         1 <0>         0.1342 
      53 H23        3.9736   -2.0516    8.5036 H         1 <0>         0.1410 
      54 H24        2.5937   -6.2080   10.2113 H         1 <0>         0.0777 
      55 H25        3.8966   -7.3404    9.7894 H         1 <0>         0.0771 
      56 H26        3.0267   -7.4926    7.4838 H         1 <0>         0.0623 
      57 H27        1.7329   -6.3444    7.8910 H         1 <0>         0.0572 
      58 H28        1.7743   -7.9459    8.6603 H         1 <0>         0.0578 
@<TRIPOS>BOND
       1        1        2 1        
       2        1       31 1        
       3        1       32 1        
       4        1       33 1        
       5        2        3 1        
       6        2       34 1        
       7        2       35 1        
       8        3        4 1        
       9        3       36 1        
      10        3       37 1        
      11        4        5 1        
      12        4       38 1        
      13        4       39 1        
      14        5        6 1        
      15        6        7 1        
      16        6       40 1        
      17        6       41 1        
      18        7        8 1        
      19        7       42 1        
      20        7       43 1        
      21        8        9 am       
      22        8       44 1        
      23        9       10 2        
      24        9       11 1        
      25       11       12 1        
      26       11       45 1        
      27       11       46 1        
      28       12       13 1        
      29       13       14 2        
      30       13       15 1        
      31       15       19 2        
      32       15       16 1        
      33       16       17 2        
      34       16       47 1        
      35       17       18 1        
      36       17       48 1        
      37       18       19 1        
      38       19       20 1        
      39       20       21 am       
      40       20       49 1        
      41       21       22 2        
      42       21       23 1        
      43       23       28 ar       
      44       23       24 ar       
      45       24       25 ar       
      46       24       50 1        
      47       25       26 ar       
      48       25       51 1        
      49       26       27 ar       
      50       26       29 1        
      51       27       28 ar       
      52       27       52 1        
      53       28       53 1        
      54       29       30 1        
      55       29       54 1        
      56       29       55 1        
      57       30       56 1        
      58       30       57 1        
      59       30       58 1        

