#        1GCZ_R01_S0001_C0000_L00011_S0001_C0037_G0010_E0001.mol2
#        Tue Jun  6 09:58:23 2017
#        Descriptor:     21     2    18     8     8    12
#        Energy - RMSD - RMSD MassCentre:     -84.8347    999.9999    999.9999
#        Receptor:       1  Surface Point:     1  Conformer:     0
#        Ligand:        11  Surface Point:     1  Conformer:    37
#        BUDE Formal Charge: 0
#        ATOM Count: 47
#        Heavy ATOM Count: 28
@<TRIPOS>MOLECULE
ZINC61303593_1GCZ_R01_S0001_C0000_L00011_S0001_C0037_G0010_E0001
 47 48 0 0 0
SMALL
USER_CHARGES
@<TRIPOS>ATOM
       1 C1        -0.9292   -3.0022    0.8312 C.3       1 <0>         0.0220 
       2 O1        -0.6148   -1.7247    1.3915 O.3       1 <0>        -0.3006 
       3 C2        -0.5695   -0.6465    0.5477 C.ar      1 <0>         0.1008 
       4 C3        -0.0125   -0.6907   -0.7359 C.ar      1 <0>        -0.1273 
       5 C4         0.0030    0.4478   -1.5505 C.ar      1 <0>        -0.0284 
       6 C5        -0.5427    1.6418   -1.0793 C.ar      1 <0>        -0.0603 
       7 C6        -1.1006    1.6899    0.2037 C.ar      1 <0>        -0.1775 
       8 C7        -1.1169    0.5525    1.0196 C.ar      1 <0>         0.1359 
       9 O2        -1.6471    0.5342    2.2827 O.3       1 <0>        -0.2949 
      10 C8        -1.3690    1.6423    3.1429 C.3       1 <0>         0.0554 
      11 C9         0.1393    1.7500    3.3618 C.3       1 <0>        -0.1108 
      12 C10        0.6498    0.4704    4.0226 C.3       1 <0>        -0.1085 
      13 C11        2.1405    0.5768    4.2390 C.2       1 <0>         0.4668 
      14 O3         2.7250    1.5634    3.9026 O.2       1 <0>        -0.4984 
      15 O4         2.8134   -0.4432    4.8128 O.3       1 <0>        -0.3293 
      16 C12        2.0715   -1.6032    5.1986 C.3       1 <0>         0.0498 
      17 C13        1.0654   -1.2262    6.2597 C.2       1 <0>         0.5168 
      18 O5        -0.1177   -1.5337    6.1235 O.2       1 <0>        -0.4913 
      19 N1         1.4589   -0.5612    7.3422 N.am      1 <0>        -0.6701 
      20 C14        0.5174   -0.2072    8.3374 C.ar      1 <0>         0.1579 
      21 C15       -0.8289   -0.5588    8.1831 C.ar      1 <0>        -0.1362 
      22 C16       -1.7609   -0.2037    9.1657 C.ar      1 <0>        -0.0710 
      23 C17       -1.3463    0.4950   10.3040 C.ar      1 <0>        -0.1038 
      24 C18        0.0004    0.8446   10.4591 C.ar      1 <0>        -0.0707 
      25 C19        0.9332    0.4928    9.4762 C.ar      1 <0>        -0.1148 
      26 Br1       -2.6118    0.9763   11.6369 Br        1 <0>        -0.0469 
      27 C20        0.5825    0.3905   -2.8783 C.1       1 <0>         0.2541 
      28 N2         1.0461    0.3453   -3.9408 N.1       1 <0>        -0.4124 
      29 H1        -0.1781   -3.2670    0.0900 H         1 <0>         0.1051 
      30 H2        -0.9406   -3.7508    1.6206 H         1 <0>         0.0578 
      31 H3        -1.9077   -2.9588    0.3576 H         1 <0>         0.0579 
      32 H4         0.4247   -1.5840   -1.1567 H         1 <0>         0.1456 
      33 H5        -0.5320    2.5216   -1.7056 H         1 <0>         0.1399 
      34 H6        -1.5070    2.6420    0.5119 H         1 <0>         0.1478 
      35 H7        -1.7347    2.5588    2.6845 H         1 <0>         0.0709 
      36 H8        -1.8640    1.4923    4.1001 H         1 <0>         0.0709 
      37 H9         0.6367    1.8860    2.4038 H         1 <0>         0.0878 
      38 H10        0.3531    2.6003    4.0060 H         1 <0>         0.0877 
      39 H11        0.1537    0.3337    4.9811 H         1 <0>         0.1149 
      40 H12        0.4373   -0.3806    3.3790 H         1 <0>         0.1150 
      41 H13        2.7516   -2.3541    5.5951 H         1 <0>         0.1060 
      42 H14        1.5506   -2.0059    4.3326 H         1 <0>         0.1063 
      43 H15        2.4304   -0.3087    7.4540 H         1 <0>         0.4168 
      44 H16       -1.1437   -1.1052    7.3063 H         1 <0>         0.1372 
      45 H17       -2.7999   -0.4742    9.0493 H         1 <0>         0.1390 
      46 H18        0.3178    1.3854   11.3384 H         1 <0>         0.1383 
      47 H19        1.9737    0.7573    9.5932 H         1 <0>         0.1486 
@<TRIPOS>BOND
       1        1        2 1        
       2        1       29 1        
       3        1       30 1        
       4        1       31 1        
       5        2        3 1        
       6        3        8 ar       
       7        3        4 ar       
       8        4        5 ar       
       9        4       32 1        
      10        5        6 ar       
      11        5       27 1        
      12        6        7 ar       
      13        6       33 1        
      14        7        8 ar       
      15        7       34 1        
      16        8        9 1        
      17        9       10 1        
      18       10       11 1        
      19       10       35 1        
      20       10       36 1        
      21       11       12 1        
      22       11       37 1        
      23       11       38 1        
      24       12       13 1        
      25       12       39 1        
      26       12       40 1        
      27       13       14 2        
      28       13       15 1        
      29       15       16 1        
      30       16       17 1        
      31       16       41 1        
      32       16       42 1        
      33       17       18 2        
      34       17       19 am       
      35       19       20 1        
      36       19       43 1        
      37       20       25 ar       
      38       20       21 ar       
      39       21       22 ar       
      40       21       44 1        
      41       22       23 ar       
      42       22       45 1        
      43       23       24 ar       
      44       23       26 1        
      45       24       25 ar       
      46       24       46 1        
      47       25       47 1        
      48       27       28 3        

