#        1GCZ_R01_S0001_C0000_L00011_S0001_C0038_G0010_E0001.mol2
#        Tue Jun  6 09:58:24 2017
#        Descriptor:     16     4     9     9     6    15
#        Energy - RMSD - RMSD MassCentre:     -65.3040    999.9999    999.9999
#        Receptor:       1  Surface Point:     1  Conformer:     0
#        Ligand:        11  Surface Point:     1  Conformer:    38
#        BUDE Formal Charge: 0
#        ATOM Count: 47
#        Heavy ATOM Count: 28
@<TRIPOS>MOLECULE
ZINC61303593_1GCZ_R01_S0001_C0000_L00011_S0001_C0038_G0010_E0001
 47 48 0 0 0
SMALL
USER_CHARGES
@<TRIPOS>ATOM
       1 C1         3.3839    0.2600    3.9790 C.3       1 <0>         0.0220 
       2 O1         2.2359   -0.3635    4.5606 O.3       1 <0>        -0.3006 
       3 C2         1.0391   -0.2454    3.9046 C.ar      1 <0>         0.1008 
       4 C3         0.9063   -0.3348    2.5139 C.ar      1 <0>        -0.1273 
       5 C4        -0.3469   -0.2052    1.9034 C.ar      1 <0>        -0.0284 
       6 C5        -1.4782    0.0156    2.6886 C.ar      1 <0>        -0.0603 
       7 C6        -1.3495    0.1055    4.0797 C.ar      1 <0>        -0.1775 
       8 C7        -0.0971   -0.0238    4.6918 C.ar      1 <0>         0.1359 
       9 O2         0.0955    0.0543    6.0459 O.3       1 <0>        -0.2949 
      10 C8        -0.8389   -0.6160    6.8960 C.3       1 <0>         0.0554 
      11 C9        -0.8197   -2.1133    6.5917 C.3       1 <0>        -0.1108 
      12 C10        0.5787   -2.6684    6.8587 C.3       1 <0>        -0.1085 
      13 C11        0.5977   -4.1481    6.5579 C.2       1 <0>         0.4668 
      14 O3        -0.3941   -4.6936    6.1746 O.2       1 <0>        -0.4984 
      15 O4         1.7358   -4.8553    6.7224 O.3       1 <0>        -0.3293 
      16 C12        2.8971   -4.1595    7.1831 C.3       1 <0>         0.0498 
      17 C13        2.6392   -3.6128    8.5668 C.2       1 <0>         0.5168 
      18 O5         2.8495   -2.4253    8.8088 O.2       1 <0>        -0.4913 
      19 N1         2.1843   -4.4157    9.5246 N.am      1 <0>        -0.6701 
      20 C14        1.9421   -3.9049   10.8217 C.ar      1 <0>         0.1579 
      21 C15        2.1799   -2.5529   11.0965 C.ar      1 <0>        -0.1362 
      22 C16        1.9451   -2.0492   12.3816 C.ar      1 <0>        -0.0710 
      23 C17        1.4661   -2.8940   13.3879 C.ar      1 <0>        -0.1038 
      24 C18        1.2264   -4.2454   13.1123 C.ar      1 <0>        -0.0707 
      25 C19        1.4633   -4.7515   11.8286 C.ar      1 <0>        -0.1148 
      26 Br1        1.1476   -2.2095   15.1314 Br        1 <0>        -0.0469 
      27 C20       -0.4727   -0.2995    0.4620 C.1       1 <0>         0.2541 
      28 N2        -0.5740   -0.3749   -0.6912 N.1       1 <0>        -0.4124 
      29 H1         3.2163    1.3325    3.9079 H         1 <0>         0.1051 
      30 H2         4.2547    0.0688    4.6028 H         1 <0>         0.0578 
      31 H3         3.5528   -0.1482    2.9847 H         1 <0>         0.0579 
      32 H4         1.7434   -0.5044    1.8529 H         1 <0>         0.1456 
      33 H5        -2.4463    0.1159    2.2203 H         1 <0>         0.1399 
      34 H6        -2.2609    0.2773    4.6331 H         1 <0>         0.1478 
      35 H7        -0.5644   -0.4545    7.9363 H         1 <0>         0.0709 
      36 H8        -1.8380   -0.2233    6.7187 H         1 <0>         0.0709 
      37 H9        -1.5392   -2.6228    7.2292 H         1 <0>         0.0878 
      38 H10       -1.0804   -2.2753    5.5480 H         1 <0>         0.0877 
      39 H11        1.2991   -2.1602    6.2212 H         1 <0>         0.1149 
      40 H12        0.8403   -2.5077    7.9023 H         1 <0>         0.1150 
      41 H13        3.1214   -3.3386    6.5055 H         1 <0>         0.1060 
      42 H14        3.7416   -4.8446    7.2162 H         1 <0>         0.1063 
      43 H15        2.0116   -5.3908    9.3258 H         1 <0>         0.4168 
      44 H16        2.5423   -1.9021   10.3145 H         1 <0>         0.1372 
      45 H17        2.1271   -1.0066   12.5960 H         1 <0>         0.1390 
      46 H18        0.8578   -4.8961   13.8916 H         1 <0>         0.1383 
      47 H19        1.2766   -5.7925   11.6105 H         1 <0>         0.1486 
@<TRIPOS>BOND
       1        1        2 1        
       2        1       29 1        
       3        1       30 1        
       4        1       31 1        
       5        2        3 1        
       6        3        8 ar       
       7        3        4 ar       
       8        4        5 ar       
       9        4       32 1        
      10        5        6 ar       
      11        5       27 1        
      12        6        7 ar       
      13        6       33 1        
      14        7        8 ar       
      15        7       34 1        
      16        8        9 1        
      17        9       10 1        
      18       10       11 1        
      19       10       35 1        
      20       10       36 1        
      21       11       12 1        
      22       11       37 1        
      23       11       38 1        
      24       12       13 1        
      25       12       39 1        
      26       12       40 1        
      27       13       14 2        
      28       13       15 1        
      29       15       16 1        
      30       16       17 1        
      31       16       41 1        
      32       16       42 1        
      33       17       18 2        
      34       17       19 am       
      35       19       20 1        
      36       19       43 1        
      37       20       25 ar       
      38       20       21 ar       
      39       21       22 ar       
      40       21       44 1        
      41       22       23 ar       
      42       22       45 1        
      43       23       24 ar       
      44       23       26 1        
      45       24       25 ar       
      46       24       46 1        
      47       25       47 1        
      48       27       28 3        

