#        1GCZ_R01_S0001_C0000_L00011_S0001_C0038_G0010_E0001.mol2
#        Tue Jun  6 14:12:33 2017
#        Descriptor:     27    25    14    13     8    14
#        Energy - RMSD - RMSD MassCentre:     -56.6795    999.9999    999.9999
#        Receptor:       1  Surface Point:     1  Conformer:     0
#        Ligand:        11  Surface Point:     1  Conformer:    38
#        BUDE Formal Charge: 0
#        ATOM Count: 47
#        Heavy ATOM Count: 28
@<TRIPOS>MOLECULE
ZINC61303593_1GCZ_R01_S0001_C0000_L00011_S0001_C0038_G0010_E0001
 47 48 0 0 0
SMALL
USER_CHARGES
@<TRIPOS>ATOM
       1 C1         2.8306   -3.8648    6.5234 C.3       1 <0>         0.0220 
       2 O1         2.9988   -2.4552    6.3510 O.3       1 <0>        -0.3006 
       3 C2         1.8737   -1.6864    6.2099 C.ar      1 <0>         0.1008 
       4 C3         0.7040   -1.8820    6.9537 C.ar      1 <0>        -0.1273 
       5 C4        -0.4135   -1.0606    6.7620 C.ar      1 <0>        -0.0284 
       6 C5        -0.3627   -0.0344    5.8189 C.ar      1 <0>        -0.0603 
       7 C6         0.8053    0.1643    5.0732 C.ar      1 <0>        -0.1775 
       8 C7         1.9236   -0.6560    5.2636 C.ar      1 <0>         0.1359 
       9 O2         3.0945   -0.5136    4.5668 O.3       1 <0>        -0.2949 
      10 C8         3.5965    0.8097    4.3622 C.3       1 <0>         0.0554 
      11 C9         3.8737    1.4632    5.7152 C.3       1 <0>        -0.1108 
      12 C10        4.9229    0.6470    6.4687 C.3       1 <0>        -0.1085 
      13 C11        5.1968    1.2929    7.8059 C.2       1 <0>         0.4668 
      14 O3         4.6183    2.2909    8.1181 O.2       1 <0>        -0.4984 
      15 O4         6.0958    0.7426    8.6493 O.3       1 <0>        -0.3293 
      16 C12        6.7631   -0.4515    8.2324 C.3       1 <0>         0.0498 
      17 C13        7.5905   -0.1615    7.0030 C.2       1 <0>         0.5168 
      18 O5         7.4743   -0.8668    6.0021 O.2       1 <0>        -0.4913 
      19 N1         8.4455    0.8572    7.0026 N.am      1 <0>        -0.6701 
      20 C14        9.2216    1.1302    5.8513 C.ar      1 <0>         0.1579 
      21 C15        9.0879    0.3285    4.7115 C.ar      1 <0>        -0.1362 
      22 C16        9.8599    0.5959    3.5745 C.ar      1 <0>        -0.0710 
      23 C17       10.7583    1.6677    3.5746 C.ar      1 <0>        -0.1038 
      24 C18       10.8902    2.4707    4.7137 C.ar      1 <0>        -0.0707 
      25 C19       10.1211    2.2029    5.8526 C.ar      1 <0>        -0.1148 
      26 Br1       11.8053    2.0299    2.0311 Br        1 <0>        -0.0469 
      27 C20       -1.6198   -1.2723    7.5380 C.1       1 <0>         0.2541 
      28 N2        -2.5853   -1.4411    8.1585 N.1       1 <0>        -0.4124 
      29 H1         2.3249   -4.2782    5.6534 H         1 <0>         0.1051 
      30 H2         3.8056   -4.3348    6.6344 H         1 <0>         0.0578 
      31 H3         2.2338   -4.0519    7.4137 H         1 <0>         0.0579 
      32 H4         0.6031   -2.6583    7.6976 H         1 <0>         0.1456 
      33 H5        -1.2233    0.6008    5.6689 H         1 <0>         0.1399 
      34 H6         0.7835    0.9743    4.3590 H         1 <0>         0.1478 
      35 H7         4.5188    0.7634    3.7868 H         1 <0>         0.0709 
      36 H8         2.8593    1.3981    3.8201 H         1 <0>         0.0709 
      37 H9         4.2438    2.4746    5.5612 H         1 <0>         0.0878 
      38 H10        2.9551    1.4973    6.2972 H         1 <0>         0.0877 
      39 H11        4.5536   -0.3644    6.6241 H         1 <0>         0.1149 
      40 H12        5.8423    0.6128    5.8881 H         1 <0>         0.1150 
      41 H13        6.0261   -1.2174    8.0004 H         1 <0>         0.1060 
      42 H14        7.4127   -0.8025    9.0315 H         1 <0>         0.1063 
      43 H15        8.5410    1.4363    7.8245 H         1 <0>         0.4168 
      44 H16        8.3873   -0.4935    4.7129 H         1 <0>         0.1372 
      45 H17        9.7582   -0.0207    2.6938 H         1 <0>         0.1390 
      46 H18       11.5857    3.2969    4.7117 H         1 <0>         0.1383 
      47 H19       10.2170    2.8217    6.7324 H         1 <0>         0.1486 
@<TRIPOS>BOND
       1        1        2 1        
       2        1       29 1        
       3        1       30 1        
       4        1       31 1        
       5        2        3 1        
       6        3        8 ar       
       7        3        4 ar       
       8        4        5 ar       
       9        4       32 1        
      10        5        6 ar       
      11        5       27 1        
      12        6        7 ar       
      13        6       33 1        
      14        7        8 ar       
      15        7       34 1        
      16        8        9 1        
      17        9       10 1        
      18       10       11 1        
      19       10       35 1        
      20       10       36 1        
      21       11       12 1        
      22       11       37 1        
      23       11       38 1        
      24       12       13 1        
      25       12       39 1        
      26       12       40 1        
      27       13       14 2        
      28       13       15 1        
      29       15       16 1        
      30       16       17 1        
      31       16       41 1        
      32       16       42 1        
      33       17       18 2        
      34       17       19 am       
      35       19       20 1        
      36       19       43 1        
      37       20       25 ar       
      38       20       21 ar       
      39       21       22 ar       
      40       21       44 1        
      41       22       23 ar       
      42       22       45 1        
      43       23       24 ar       
      44       23       26 1        
      45       24       25 ar       
      46       24       46 1        
      47       25       47 1        
      48       27       28 3        

