#        1GCZ_R01_S0001_C0000_L00011_S0001_C0039_G0010_E0001.mol2
#        Tue Jun  6 09:58:25 2017
#        Descriptor:     21     1    21    14     8    13
#        Energy - RMSD - RMSD MassCentre:     -57.6618    999.9999    999.9999
#        Receptor:       1  Surface Point:     1  Conformer:     0
#        Ligand:        11  Surface Point:     1  Conformer:    39
#        BUDE Formal Charge: 0
#        ATOM Count: 47
#        Heavy ATOM Count: 28
@<TRIPOS>MOLECULE
ZINC61303593_1GCZ_R01_S0001_C0000_L00011_S0001_C0039_G0010_E0001
 47 48 0 0 0
SMALL
USER_CHARGES
@<TRIPOS>ATOM
       1 C1        11.2110    1.4241    1.5407 C.3       1 <0>         0.0220 
       2 O1        10.2814    0.9527    2.5196 O.3       1 <0>        -0.3006 
       3 C2        10.6974   -0.0279    3.3811 C.ar      1 <0>         0.1008 
       4 C3        11.9709   -0.0594    3.9616 C.ar      1 <0>        -0.1273 
       5 C4        12.3355   -1.0906    4.8355 C.ar      1 <0>        -0.0284 
       6 C5        11.4201   -2.1000    5.1328 C.ar      1 <0>        -0.0603 
       7 C6        10.1456   -2.0720    4.5542 C.ar      1 <0>        -0.1775 
       8 C7         9.7795   -1.0416    3.6802 C.ar      1 <0>         0.1359 
       9 O2         8.5497   -0.9571    3.0822 O.3       1 <0>        -0.2949 
      10 C8         7.3958   -1.2378    3.8788 C.3       1 <0>         0.0554 
      11 C9         7.3263   -0.2470    5.0400 C.3       1 <0>        -0.1108 
      12 C10        6.0934   -0.5471    5.8911 C.3       1 <0>        -0.1085 
      13 C11        4.8509   -0.3978    5.0459 C.2       1 <0>         0.4668 
      14 O3         4.1253   -1.3325    4.8785 O.2       1 <0>        -0.4984 
      15 O4         4.5596    0.7923    4.4791 O.3       1 <0>        -0.3293 
      16 C12        3.3725    0.8854    3.6873 C.3       1 <0>         0.0498 
      17 C13        2.1664    0.6244    4.5576 C.2       1 <0>         0.5168 
      18 O5         1.3316   -0.2127    4.2180 O.2       1 <0>        -0.4913 
      19 N1         2.0067    1.3000    5.6920 N.am      1 <0>        -0.6701 
      20 C14        0.8770    1.0566    6.5085 C.ar      1 <0>         0.1579 
      21 C15       -0.0721    0.1026    6.1228 C.ar      1 <0>        -0.1362 
      22 C16       -1.1924   -0.1341    6.9286 C.ar      1 <0>        -0.0710 
      23 C17       -1.3593    0.5763    8.1216 C.ar      1 <0>        -0.1038 
      24 C18       -0.4089    1.5287    8.5082 C.ar      1 <0>        -0.0707 
      25 C19        0.7105    1.7687    7.7022 C.ar      1 <0>        -0.1148 
      26 Br1       -2.8797    0.2542    9.2145 Br        1 <0>        -0.0469 
      27 C20       13.6573   -1.1131    5.4311 C.1       1 <0>         0.2541 
      28 N2        14.7147   -1.1317    5.9078 N.1       1 <0>        -0.4124 
      29 H1        11.5052    0.5998    0.8943 H         1 <0>         0.1051 
      30 H2        10.7437    2.2047    0.9440 H         1 <0>         0.0578 
      31 H3        12.0902    1.8259    2.0400 H         1 <0>         0.0579 
      32 H4        12.7228    0.6922    3.7710 H         1 <0>         0.1456 
      33 H5        11.6986   -2.8967    5.8066 H         1 <0>         0.1399 
      34 H6         9.4818   -2.8805    4.8228 H         1 <0>         0.1478 
      35 H7         6.5006   -1.1429    3.2678 H         1 <0>         0.0709 
      36 H8         7.4624   -2.2506    4.2706 H         1 <0>         0.0709 
      37 H9         8.2206   -0.3417    5.6522 H         1 <0>         0.0878 
      38 H10        7.2588    0.7662    4.6495 H         1 <0>         0.0877 
      39 H11        6.1528   -1.5649    6.2707 H         1 <0>         0.1149 
      40 H12        6.0495    0.1498    6.7254 H         1 <0>         0.1150 
      41 H13        3.4094    0.1473    2.8890 H         1 <0>         0.1060 
      42 H14        3.2998    1.8822    3.2575 H         1 <0>         0.1063 
      43 H15        2.6922    1.9874    5.9708 H         1 <0>         0.4168 
      44 H16        0.0645   -0.4495    5.2047 H         1 <0>         0.1372 
      45 H17       -1.9257   -0.8699    6.6336 H         1 <0>         0.1390 
      46 H18       -0.5408    2.0769    9.4293 H         1 <0>         0.1383 
      47 H19        1.4480    2.5000    7.9982 H         1 <0>         0.1486 
@<TRIPOS>BOND
       1        1        2 1        
       2        1       29 1        
       3        1       30 1        
       4        1       31 1        
       5        2        3 1        
       6        3        8 ar       
       7        3        4 ar       
       8        4        5 ar       
       9        4       32 1        
      10        5        6 ar       
      11        5       27 1        
      12        6        7 ar       
      13        6       33 1        
      14        7        8 ar       
      15        7       34 1        
      16        8        9 1        
      17        9       10 1        
      18       10       11 1        
      19       10       35 1        
      20       10       36 1        
      21       11       12 1        
      22       11       37 1        
      23       11       38 1        
      24       12       13 1        
      25       12       39 1        
      26       12       40 1        
      27       13       14 2        
      28       13       15 1        
      29       15       16 1        
      30       16       17 1        
      31       16       41 1        
      32       16       42 1        
      33       17       18 2        
      34       17       19 am       
      35       19       20 1        
      36       19       43 1        
      37       20       25 ar       
      38       20       21 ar       
      39       21       22 ar       
      40       21       44 1        
      41       22       23 ar       
      42       22       45 1        
      43       23       24 ar       
      44       23       26 1        
      45       24       25 ar       
      46       24       46 1        
      47       25       47 1        
      48       27       28 3        

