#        1GCZ_R01_S0001_C0000_L00011_S0001_C0039_G0010_E0001.mol2
#        Tue Jun  6 14:12:35 2017
#        Descriptor:      1    18     8    10     4    15
#        Energy - RMSD - RMSD MassCentre:     -57.4767    999.9999    999.9999
#        Receptor:       1  Surface Point:     1  Conformer:     0
#        Ligand:        11  Surface Point:     1  Conformer:    39
#        BUDE Formal Charge: 0
#        ATOM Count: 47
#        Heavy ATOM Count: 28
@<TRIPOS>MOLECULE
ZINC61303593_1GCZ_R01_S0001_C0000_L00011_S0001_C0039_G0010_E0001
 47 48 0 0 0
SMALL
USER_CHARGES
@<TRIPOS>ATOM
       1 C1         3.4258    1.5835    4.1819 C.3       1 <0>         0.0220 
       2 O1         3.4298    0.3694    4.9374 O.3       1 <0>        -0.3006 
       3 C2         4.6381   -0.1255    5.3518 C.ar      1 <0>         0.1008 
       4 C3         5.6772    0.6760    5.8393 C.ar      1 <0>        -0.1273 
       5 C4         6.8899    0.1082    6.2476 C.ar      1 <0>        -0.0284 
       6 C5         7.0672   -1.2730    6.1686 C.ar      1 <0>        -0.0603 
       7 C6         6.0305   -2.0779    5.6816 C.ar      1 <0>        -0.1775 
       8 C7         4.8172   -1.5117    5.2729 C.ar      1 <0>         0.1359 
       9 O2         3.7654   -2.2436    4.7879 O.3       1 <0>        -0.2949 
      10 C8         3.4352   -3.4655    5.4533 C.3       1 <0>         0.0554 
      11 C9         3.0590   -3.1687    6.9043 C.3       1 <0>        -0.1108 
      12 C10        2.7061   -4.4743    7.6152 C.3       1 <0>        -0.1085 
      13 C11        1.5269   -5.1187    6.9263 C.2       1 <0>         0.4668 
      14 O3         1.6384   -6.2046    6.4398 O.2       1 <0>        -0.4984 
      15 O4         0.3461   -4.4678    6.8601 O.3       1 <0>        -0.3293 
      16 C12       -0.7418   -5.1179    6.1977 C.3       1 <0>         0.0498 
      17 C13       -1.0980   -6.3836    6.9403 C.2       1 <0>         0.5168 
      18 O5        -1.1778   -7.4511    6.3346 O.2       1 <0>        -0.4913 
      19 N1        -1.3255   -6.3439    8.2501 N.am      1 <0>        -0.6701 
      20 C14       -1.6593   -7.5291    8.9473 C.ar      1 <0>         0.1579 
      21 C15       -1.7483   -8.7444    8.2582 C.ar      1 <0>        -0.1362 
      22 C16       -2.0838   -9.9158    8.9477 C.ar      1 <0>        -0.0710 
      23 C17       -2.3222   -9.8735   10.3251 C.ar      1 <0>        -0.1038 
      24 C18       -2.2310   -8.6585   11.0144 C.ar      1 <0>        -0.0707 
      25 C19       -1.8985   -7.4856   10.3260 C.ar      1 <0>        -0.1148 
      26 Br1       -2.7773  -11.4637   11.2599 Br        1 <0>        -0.0469 
      27 C20        7.9593    0.9481    6.7510 C.1       1 <0>         0.2541 
      28 N2         8.8153    1.6195    7.1538 N.1       1 <0>        -0.4124 
      29 H1         3.9915    1.4403    3.2637 H         1 <0>         0.1051 
      30 H2         2.4008    1.8551    3.9386 H         1 <0>         0.0578 
      31 H3         3.8820    2.3773    4.7698 H         1 <0>         0.0579 
      32 H4         5.6009    1.7500    5.9246 H         1 <0>         0.1456 
      33 H5         8.0017   -1.7138    6.4829 H         1 <0>         0.1399 
      34 H6         6.2276   -3.1391    5.6444 H         1 <0>         0.1478 
      35 H7         2.5936   -3.9371    4.9504 H         1 <0>         0.0709 
      36 H8         4.2928   -4.1345    5.4313 H         1 <0>         0.0709 
      37 H9         3.9001   -2.6978    7.4086 H         1 <0>         0.0878 
      38 H10        2.2009   -2.5004    6.9277 H         1 <0>         0.0877 
      39 H11        3.5588   -5.1490    7.5802 H         1 <0>         0.1149 
      40 H12        2.4502   -4.2658    8.6519 H         1 <0>         0.1150 
      41 H13       -0.4513   -5.3654    5.1790 H         1 <0>         0.1060 
      42 H14       -1.6040   -4.4546    6.1787 H         1 <0>         0.1063 
      43 H15       -1.2600   -5.4673    8.7474 H         1 <0>         0.4168 
      44 H16       -1.5558   -8.7742    7.1959 H         1 <0>         0.1372 
      45 H17       -2.1526  -10.8547    8.4185 H         1 <0>         0.1390 
      46 H18       -2.4170   -8.6282   12.0778 H         1 <0>         0.1383 
      47 H19       -1.8236   -6.5466   10.8542 H         1 <0>         0.1486 
@<TRIPOS>BOND
       1        1        2 1        
       2        1       29 1        
       3        1       30 1        
       4        1       31 1        
       5        2        3 1        
       6        3        8 ar       
       7        3        4 ar       
       8        4        5 ar       
       9        4       32 1        
      10        5        6 ar       
      11        5       27 1        
      12        6        7 ar       
      13        6       33 1        
      14        7        8 ar       
      15        7       34 1        
      16        8        9 1        
      17        9       10 1        
      18       10       11 1        
      19       10       35 1        
      20       10       36 1        
      21       11       12 1        
      22       11       37 1        
      23       11       38 1        
      24       12       13 1        
      25       12       39 1        
      26       12       40 1        
      27       13       14 2        
      28       13       15 1        
      29       15       16 1        
      30       16       17 1        
      31       16       41 1        
      32       16       42 1        
      33       17       18 2        
      34       17       19 am       
      35       19       20 1        
      36       19       43 1        
      37       20       25 ar       
      38       20       21 ar       
      39       21       22 ar       
      40       21       44 1        
      41       22       23 ar       
      42       22       45 1        
      43       23       24 ar       
      44       23       26 1        
      45       24       25 ar       
      46       24       46 1        
      47       25       47 1        
      48       27       28 3        

