#        1GCZ_R01_S0001_C0000_L00011_S0001_C0040_G0010_E0001.mol2
#        Tue Jun  6 09:58:26 2017
#        Descriptor:     33     5    30     8     6    12
#        Energy - RMSD - RMSD MassCentre:     -82.9654    999.9999    999.9999
#        Receptor:       1  Surface Point:     1  Conformer:     0
#        Ligand:        11  Surface Point:     1  Conformer:    40
#        BUDE Formal Charge: 0
#        ATOM Count: 47
#        Heavy ATOM Count: 28
@<TRIPOS>MOLECULE
ZINC61303593_1GCZ_R01_S0001_C0000_L00011_S0001_C0040_G0010_E0001
 47 48 0 0 0
SMALL
USER_CHARGES
@<TRIPOS>ATOM
       1 C1        -1.0208   -3.0928    0.5555 C.3       1 <0>         0.0220 
       2 O1        -0.5854   -1.9050    1.2220 O.3       1 <0>        -0.3006 
       3 C2        -0.4304   -0.7681    0.4734 C.ar      1 <0>         0.1008 
       4 C3         0.1256   -0.7568   -0.8112 C.ar      1 <0>        -0.1273 
       5 C4         0.2567    0.4401   -1.5253 C.ar      1 <0>        -0.0284 
       6 C5        -0.1714    1.6371   -0.9517 C.ar      1 <0>        -0.0603 
       7 C6        -0.7280    1.6299    0.3328 C.ar      1 <0>        -0.1775 
       8 C7        -0.8598    0.4339    1.0483 C.ar      1 <0>         0.1359 
       9 O2        -1.3953    0.3598    2.3071 O.3       1 <0>        -0.2949 
      10 C8        -1.0140    1.3575    3.2579 C.3       1 <0>         0.0554 
      11 C9         0.4966    1.2976    3.4799 C.3       1 <0>        -0.1108 
      12 C10        0.8759   -0.0779    4.0268 C.3       1 <0>        -0.1085 
      13 C11        0.1785   -0.3034    5.3470 C.2       1 <0>         0.4668 
      14 O3        -0.5387    0.5402    5.7966 O.2       1 <0>        -0.4984 
      15 O4         0.3653   -1.4587    6.0199 O.3       1 <0>        -0.3293 
      16 C12       -0.3161   -1.6270    7.2658 C.3       1 <0>         0.0498 
      17 C13        0.0280   -2.9770    7.8483 C.2       1 <0>         0.5168 
      18 O5         0.4327   -3.0629    9.0066 O.2       1 <0>        -0.4913 
      19 N1        -0.1066   -4.0739    7.1083 N.am      1 <0>        -0.6701 
      20 C14        0.2155   -5.3396    7.6526 C.ar      1 <0>         0.1579 
      21 C15        0.6743   -5.4374    8.9716 C.ar      1 <0>        -0.1362 
      22 C16        0.9978   -6.6896    9.5080 C.ar      1 <0>        -0.0710 
      23 C17        0.8553   -7.8426    8.7295 C.ar      1 <0>        -0.1038 
      24 C18        0.3944   -7.7448    7.4112 C.ar      1 <0>        -0.0707 
      25 C19        0.0732   -6.4932    6.8724 C.ar      1 <0>        -0.1148 
      26 Br1        1.2944   -9.5414    9.4583 Br        1 <0>        -0.0469 
      27 C20        0.8342    0.4401   -2.8555 C.1       1 <0>         0.2541 
      28 N2         1.2961    0.4407   -3.9195 N.1       1 <0>        -0.4124 
      29 H1        -0.2959   -3.3657   -0.2084 H         1 <0>         0.1051 
      30 H2        -1.1094   -3.9015    1.2779 H         1 <0>         0.0578 
      31 H3        -1.9881   -2.9132    0.0908 H         1 <0>         0.0579 
      32 H4         0.4751   -1.6495   -1.3086 H         1 <0>         0.1456 
      33 H5        -0.0715    2.5620   -1.5005 H         1 <0>         0.1399 
      34 H6        -1.0406    2.5873    0.7227 H         1 <0>         0.1478 
      35 H7        -1.2857    2.3413    2.8811 H         1 <0>         0.0709 
      36 H8        -1.5258    1.1755    4.2006 H         1 <0>         0.0709 
      37 H9         1.0096    1.4654    2.5351 H         1 <0>         0.0878 
      38 H10        0.7898    2.0644    4.1937 H         1 <0>         0.0877 
      39 H11        0.5706   -0.8467    3.3202 H         1 <0>         0.1149 
      40 H12        1.9528   -0.1261    4.1734 H         1 <0>         0.1150 
      41 H13       -1.3901   -1.5658    7.1036 H         1 <0>         0.1060 
      42 H14       -0.0079   -0.8453    7.9568 H         1 <0>         0.1063 
      43 H15       -0.4388   -4.0034    6.1571 H         1 <0>         0.4168 
      44 H16        0.7754   -4.5454    9.5721 H         1 <0>         0.1372 
      45 H17        1.3514   -6.7678   10.5254 H         1 <0>         0.1390 
      46 H18        0.2866   -8.6366    6.8117 H         1 <0>         0.1383 
      47 H19       -0.2860   -6.4133    5.8570 H         1 <0>         0.1486 
@<TRIPOS>BOND
       1        1        2 1        
       2        1       29 1        
       3        1       30 1        
       4        1       31 1        
       5        2        3 1        
       6        3        8 ar       
       7        3        4 ar       
       8        4        5 ar       
       9        4       32 1        
      10        5        6 ar       
      11        5       27 1        
      12        6        7 ar       
      13        6       33 1        
      14        7        8 ar       
      15        7       34 1        
      16        8        9 1        
      17        9       10 1        
      18       10       11 1        
      19       10       35 1        
      20       10       36 1        
      21       11       12 1        
      22       11       37 1        
      23       11       38 1        
      24       12       13 1        
      25       12       39 1        
      26       12       40 1        
      27       13       14 2        
      28       13       15 1        
      29       15       16 1        
      30       16       17 1        
      31       16       41 1        
      32       16       42 1        
      33       17       18 2        
      34       17       19 am       
      35       19       20 1        
      36       19       43 1        
      37       20       25 ar       
      38       20       21 ar       
      39       21       22 ar       
      40       21       44 1        
      41       22       23 ar       
      42       22       45 1        
      43       23       24 ar       
      44       23       26 1        
      45       24       25 ar       
      46       24       46 1        
      47       25       47 1        
      48       27       28 3        

