#        1GCZ_R01_S0001_C0000_L00011_S0001_C0040_G0010_E0001.mol2
#        Tue Jun  6 14:12:37 2017
#        Descriptor:      3    30    29     8    10    13
#        Energy - RMSD - RMSD MassCentre:     -70.3163    999.9999    999.9999
#        Receptor:       1  Surface Point:     1  Conformer:     0
#        Ligand:        11  Surface Point:     1  Conformer:    40
#        BUDE Formal Charge: 0
#        ATOM Count: 47
#        Heavy ATOM Count: 28
@<TRIPOS>MOLECULE
ZINC61303593_1GCZ_R01_S0001_C0000_L00011_S0001_C0040_G0010_E0001
 47 48 0 0 0
SMALL
USER_CHARGES
@<TRIPOS>ATOM
       1 C1         0.2539    5.6631    5.7860 C.3       1 <0>         0.0220 
       2 O1         0.2586    4.4119    6.4781 O.3       1 <0>        -0.3006 
       3 C2         0.4290    4.4300    7.8374 C.ar      1 <0>         0.1008 
       4 C3         1.3305    5.2764    8.4935 C.ar      1 <0>        -0.1273 
       5 C4         1.4578    5.2463    9.8873 C.ar      1 <0>        -0.0284 
       6 C5         0.6776    4.3632   10.6333 C.ar      1 <0>        -0.0603 
       7 C6        -0.2251    3.5152    9.9808 C.ar      1 <0>        -0.1775 
       8 C7        -0.3536    3.5439    8.5871 C.ar      1 <0>         0.1359 
       9 O2        -1.2173    2.7410    7.8897 O.3       1 <0>        -0.2949 
      10 C8        -1.3149    1.3672    8.2746 C.3       1 <0>         0.0554 
      11 C9         0.0481    0.6958    8.1125 C.3       1 <0>        -0.1108 
      12 C10        0.4807    0.7702    6.6489 C.3       1 <0>        -0.1085 
      13 C11       -0.5269    0.0446    5.7896 C.2       1 <0>         0.4668 
      14 O3        -1.4804   -0.4717    6.2922 O.2       1 <0>        -0.4984 
      15 O4        -0.3507   -0.0209    4.4528 O.3       1 <0>        -0.3293 
      16 C12       -1.3312   -0.7186    3.6804 C.3       1 <0>         0.0498 
      17 C13       -0.9466   -0.6730    2.2209 C.2       1 <0>         0.5168 
      18 O5        -0.8956   -1.7121    1.5647 O.2       1 <0>        -0.4913 
      19 N1        -0.6628    0.4916    1.6445 N.am      1 <0>        -0.6701 
      20 C14       -0.3022    0.5360    0.2770 C.ar      1 <0>         0.1579 
      21 C15       -0.2460   -0.6465   -0.4702 C.ar      1 <0>        -0.1362 
      22 C16        0.1159   -0.6025   -1.8220 C.ar      1 <0>        -0.0710 
      23 C17        0.4135    0.6225   -2.4275 C.ar      1 <0>        -0.1038 
      24 C18        0.3551    1.8051   -1.6806 C.ar      1 <0>        -0.0707 
      25 C19       -0.0038    1.7626   -0.3280 C.ar      1 <0>        -0.1148 
      26 Br1        0.9044    0.6812   -4.2620 Br        1 <0>        -0.0469 
      27 C20        2.3950    6.1276   10.5564 C.1       1 <0>         0.2541 
      28 N2         3.1445    6.8323   11.0923 N.1       1 <0>        -0.4124 
      29 H1         1.2088    6.1627    5.9348 H         1 <0>         0.1051 
      30 H2         0.0966    5.4886    4.7237 H         1 <0>         0.0578 
      31 H3        -0.5476    6.2884    6.1740 H         1 <0>         0.0579 
      32 H4         1.9614    5.9811    7.9721 H         1 <0>         0.1456 
      33 H5         0.7738    4.3380   11.7087 H         1 <0>         0.1399 
      34 H6        -0.8006    2.8545   10.6121 H         1 <0>         0.1478 
      35 H7        -1.6289    1.3024    9.3142 H         1 <0>         0.0709 
      36 H8        -2.0437    0.8638    7.6428 H         1 <0>         0.0709 
      37 H9         0.7811    1.2071    8.7330 H         1 <0>         0.0878 
      38 H10       -0.0217   -0.3464    8.4168 H         1 <0>         0.0877 
      39 H11        0.5374    1.8116    6.3393 H         1 <0>         0.1149 
      40 H12        1.4568    0.3035    6.5345 H         1 <0>         0.1150 
      41 H13       -2.3021   -0.2463    3.8138 H         1 <0>         0.1060 
      42 H14       -1.3827   -1.7544    4.0090 H         1 <0>         0.1063 
      43 H15       -0.7046    1.3448    2.1834 H         1 <0>         0.4168 
      44 H16       -0.4842   -1.5896   -0.0008 H         1 <0>         0.1372 
      45 H17        0.1594   -1.5132   -2.4007 H         1 <0>         0.1390 
      46 H18        0.5868    2.7497   -2.1502 H         1 <0>         0.1383 
      47 H19       -0.0535    2.6728    0.2511 H         1 <0>         0.1486 
@<TRIPOS>BOND
       1        1        2 1        
       2        1       29 1        
       3        1       30 1        
       4        1       31 1        
       5        2        3 1        
       6        3        8 ar       
       7        3        4 ar       
       8        4        5 ar       
       9        4       32 1        
      10        5        6 ar       
      11        5       27 1        
      12        6        7 ar       
      13        6       33 1        
      14        7        8 ar       
      15        7       34 1        
      16        8        9 1        
      17        9       10 1        
      18       10       11 1        
      19       10       35 1        
      20       10       36 1        
      21       11       12 1        
      22       11       37 1        
      23       11       38 1        
      24       12       13 1        
      25       12       39 1        
      26       12       40 1        
      27       13       14 2        
      28       13       15 1        
      29       15       16 1        
      30       16       17 1        
      31       16       41 1        
      32       16       42 1        
      33       17       18 2        
      34       17       19 am       
      35       19       20 1        
      36       19       43 1        
      37       20       25 ar       
      38       20       21 ar       
      39       21       22 ar       
      40       21       44 1        
      41       22       23 ar       
      42       22       45 1        
      43       23       24 ar       
      44       23       26 1        
      45       24       25 ar       
      46       24       46 1        
      47       25       47 1        
      48       27       28 3        

