#        1GCZ_R01_S0001_C0000_L00011_S0001_C0041_G0010_E0001.mol2
#        Tue Jun  6 09:58:27 2017
#        Descriptor:     28    33     2    12     5    13
#        Energy - RMSD - RMSD MassCentre:     -59.6328    999.9999    999.9999
#        Receptor:       1  Surface Point:     1  Conformer:     0
#        Ligand:        11  Surface Point:     1  Conformer:    41
#        BUDE Formal Charge: 0
#        ATOM Count: 47
#        Heavy ATOM Count: 28
@<TRIPOS>MOLECULE
ZINC61303593_1GCZ_R01_S0001_C0000_L00011_S0001_C0041_G0010_E0001
 47 48 0 0 0
SMALL
USER_CHARGES
@<TRIPOS>ATOM
       1 C1         3.4381   -0.2738    3.5626 C.3       1 <0>         0.0220 
       2 O1         2.5831   -0.1625    4.7034 O.3       1 <0>        -0.3006 
       3 C2         1.2291   -0.1762    4.4953 C.ar      1 <0>         0.1008 
       4 C3         0.6020    0.4872    3.4340 C.ar      1 <0>        -0.1273 
       5 C4        -0.7881    0.4344    3.2764 C.ar      1 <0>        -0.0284 
       6 C5        -1.5596   -0.2877    4.1868 C.ar      1 <0>        -0.0603 
       7 C6        -0.9361   -0.9525    5.2494 C.ar      1 <0>        -0.1775 
       8 C7         0.4538   -0.9006    5.4085 C.ar      1 <0>         0.1359 
       9 O2         1.1232   -1.5284    6.4256 O.3       1 <0>        -0.2949 
      10 C8         0.7287   -2.8598    6.7670 C.3       1 <0>         0.0554 
      11 C9         1.5970   -3.3683    7.9169 C.3       1 <0>        -0.1108 
      12 C10        3.0612   -3.3827    7.4805 C.3       1 <0>        -0.1085 
      13 C11        3.2242   -4.3083    6.2984 C.2       1 <0>         0.4668 
      14 O3         2.2768   -4.8884    5.8577 O.2       1 <0>        -0.4984 
      15 O4         4.4408   -4.4805    5.7393 O.3       1 <0>        -0.3293 
      16 C12        5.5444   -3.7654    6.3010 C.3       1 <0>         0.0498 
      17 C13        6.8015   -4.0981    5.5335 C.2       1 <0>         0.5168 
      18 O5         7.5114   -3.1952    5.0933 O.2       1 <0>        -0.4913 
      19 N1         7.1414   -5.3682    5.3332 N.am      1 <0>        -0.6701 
      20 C14        8.3191   -5.6816    4.6142 C.ar      1 <0>         0.1579 
      21 C15        9.1279   -4.6538    4.1149 C.ar      1 <0>        -0.1362 
      22 C16       10.2903   -4.9645    3.3989 C.ar      1 <0>        -0.0710 
      23 C17       10.6474   -6.3003    3.1894 C.ar      1 <0>        -0.1038 
      24 C18        9.8396   -7.3279    3.6907 C.ar      1 <0>        -0.0707 
      25 C19        8.6753   -7.0190    4.4043 C.ar      1 <0>        -0.1148 
      26 Br1       12.2251   -6.7209    2.2179 Br        1 <0>        -0.0469 
      27 C20       -1.4270    1.1254    2.1733 C.1       1 <0>         0.2541 
      28 N2        -1.9387    1.6781    1.2911 N.1       1 <0>        -0.4124 
      29 H1         3.2566    0.5628    2.8912 H         1 <0>         0.1051 
      30 H2         4.4768   -0.2614    3.8862 H         1 <0>         0.0578 
      31 H3         3.2303   -1.2075    3.0442 H         1 <0>         0.0579 
      32 H4         1.1439    1.0618    2.6974 H         1 <0>         0.1456 
      33 H5        -2.6320   -0.3302    4.0675 H         1 <0>         0.1399 
      34 H6        -1.5862   -1.4942    5.9204 H         1 <0>         0.1478 
      35 H7        -0.3152   -2.8622    7.0732 H         1 <0>         0.0709 
      36 H8         0.8555   -3.5091    5.9032 H         1 <0>         0.0709 
      37 H9         1.4820   -2.7118    8.7768 H         1 <0>         0.0878 
      38 H10        1.2894   -4.3766    8.1860 H         1 <0>         0.0877 
      39 H11        3.3660   -2.3774    7.1978 H         1 <0>         0.1149 
      40 H12        3.6819   -3.7327    8.3026 H         1 <0>         0.1150 
      41 H13        5.6701   -4.0516    7.3431 H         1 <0>         0.1060 
      42 H14        5.3542   -2.6961    6.2383 H         1 <0>         0.1063 
      43 H15        6.5585   -6.1096    5.6946 H         1 <0>         0.4168 
      44 H16        8.8528   -3.6235    4.2856 H         1 <0>         0.1372 
      45 H17       10.9162   -4.1735    3.0133 H         1 <0>         0.1390 
      46 H18       10.1168   -8.3587    3.5262 H         1 <0>         0.1383 
      47 H19        8.0510   -7.8084    4.7958 H         1 <0>         0.1486 
@<TRIPOS>BOND
       1        1        2 1        
       2        1       29 1        
       3        1       30 1        
       4        1       31 1        
       5        2        3 1        
       6        3        8 ar       
       7        3        4 ar       
       8        4        5 ar       
       9        4       32 1        
      10        5        6 ar       
      11        5       27 1        
      12        6        7 ar       
      13        6       33 1        
      14        7        8 ar       
      15        7       34 1        
      16        8        9 1        
      17        9       10 1        
      18       10       11 1        
      19       10       35 1        
      20       10       36 1        
      21       11       12 1        
      22       11       37 1        
      23       11       38 1        
      24       12       13 1        
      25       12       39 1        
      26       12       40 1        
      27       13       14 2        
      28       13       15 1        
      29       15       16 1        
      30       16       17 1        
      31       16       41 1        
      32       16       42 1        
      33       17       18 2        
      34       17       19 am       
      35       19       20 1        
      36       19       43 1        
      37       20       25 ar       
      38       20       21 ar       
      39       21       22 ar       
      40       21       44 1        
      41       22       23 ar       
      42       22       45 1        
      43       23       24 ar       
      44       23       26 1        
      45       24       25 ar       
      46       24       46 1        
      47       25       47 1        
      48       27       28 3        

