#        1GCZ_R01_S0001_C0000_L00011_S0001_C0041_G0010_E0001.mol2
#        Tue Jun  6 14:12:39 2017
#        Descriptor:     26    35    36    10     5    14
#        Energy - RMSD - RMSD MassCentre:     -71.3177    999.9999    999.9999
#        Receptor:       1  Surface Point:     1  Conformer:     0
#        Ligand:        11  Surface Point:     1  Conformer:    41
#        BUDE Formal Charge: 0
#        ATOM Count: 47
#        Heavy ATOM Count: 28
@<TRIPOS>MOLECULE
ZINC61303593_1GCZ_R01_S0001_C0000_L00011_S0001_C0041_G0010_E0001
 47 48 0 0 0
SMALL
USER_CHARGES
@<TRIPOS>ATOM
       1 C1         2.7190   -0.7687    3.9219 C.3       1 <0>         0.0220 
       2 O1         1.5797   -0.1886    4.5624 O.3       1 <0>        -0.3006 
       3 C2         0.4327   -0.0456    3.8271 C.ar      1 <0>         0.1008 
       4 C3         0.4169    0.3655    2.4891 C.ar      1 <0>        -0.1273 
       5 C4        -0.7906    0.4924    1.7920 C.ar      1 <0>        -0.0284 
       6 C5        -1.9938    0.2062    2.4368 C.ar      1 <0>        -0.0603 
       7 C6        -1.9821   -0.2051    3.7749 C.ar      1 <0>        -0.1775 
       8 C7        -0.7756   -0.3325    4.4733 C.ar      1 <0>         0.1359 
       9 O2        -0.6968   -0.7299    5.7820 O.3       1 <0>        -0.2949 
      10 C8        -1.5223   -1.8189    6.2032 C.3       1 <0>         0.0554 
      11 C9        -1.2801   -2.0966    7.6861 C.3       1 <0>        -0.1108 
      12 C10        0.1847   -2.4748    7.8999 C.3       1 <0>        -0.1085 
      13 C11        0.5020   -3.7225    7.1106 C.2       1 <0>         0.4668 
      14 O3        -0.3474   -4.2469    6.4536 O.2       1 <0>        -0.4984 
      15 O4         1.7459   -4.2458    7.1473 O.3       1 <0>        -0.3293 
      16 C12        2.7288   -3.5835    7.9473 C.3       1 <0>         0.0498 
      17 C13        4.0400   -4.3260    7.8491 C.2       1 <0>         0.5168 
      18 O5         5.0705   -3.7204    7.5589 O.2       1 <0>        -0.4913 
      19 N1         4.0806   -5.6358    8.0764 N.am      1 <0>        -0.6701 
      20 C14        5.3084   -6.3331    7.9848 C.ar      1 <0>         0.1579 
      21 C15        6.4815   -5.6433    7.6563 C.ar      1 <0>        -0.1362 
      22 C16        7.6952   -6.3347    7.5606 C.ar      1 <0>        -0.0710 
      23 C17        7.7372   -7.7118    7.8005 C.ar      1 <0>        -0.1038 
      24 C18        6.5644   -8.4010    8.1311 C.ar      1 <0>        -0.0707 
      25 C19        5.3493   -7.7117    8.2244 C.ar      1 <0>        -0.1148 
      26 Br1        9.3848   -8.6491    7.6706 Br        1 <0>        -0.0469 
      27 C20       -0.7950    0.9190    0.4062 C.1       1 <0>         0.2541 
      28 N2        -0.7992    1.2602   -0.7025 N.1       1 <0>        -0.4124 
      29 H1         3.0123   -0.1507    3.0759 H         1 <0>         0.1051 
      30 H2         3.5418   -0.8281    4.6312 H         1 <0>         0.0578 
      31 H3         2.4679   -1.7679    3.5723 H         1 <0>         0.0579 
      32 H4         1.3139    0.6012    1.9357 H         1 <0>         0.1456 
      33 H5        -2.9267    0.3032    1.9014 H         1 <0>         0.1399 
      34 H6        -2.9446   -0.4120    4.2188 H         1 <0>         0.1478 
      35 H7        -2.5684   -1.5627    6.0490 H         1 <0>         0.0709 
      36 H8        -1.2765   -2.7065    5.6239 H         1 <0>         0.0709 
      37 H9        -1.5122   -1.2054    8.2653 H         1 <0>         0.0878 
      38 H10       -1.9169   -2.9169    8.0108 H         1 <0>         0.0877 
      39 H11        0.8231   -1.6609    7.5626 H         1 <0>         0.1149 
      40 H12        0.3614   -2.6605    8.9572 H         1 <0>         0.1150 
      41 H13        2.4004   -3.5645    8.9843 H         1 <0>         0.1060 
      42 H14        2.8620   -2.5648    7.5896 H         1 <0>         0.1063 
      43 H15        3.2344   -6.1331    8.3147 H         1 <0>         0.4168 
      44 H16        6.4462   -4.5784    7.4795 H         1 <0>         0.1372 
      45 H17        8.6016   -5.8048    7.3079 H         1 <0>         0.1390 
      46 H18        6.5993   -9.4647    8.3145 H         1 <0>         0.1383 
      47 H19        4.4427   -8.2386    8.4825 H         1 <0>         0.1486 
@<TRIPOS>BOND
       1        1        2 1        
       2        1       29 1        
       3        1       30 1        
       4        1       31 1        
       5        2        3 1        
       6        3        8 ar       
       7        3        4 ar       
       8        4        5 ar       
       9        4       32 1        
      10        5        6 ar       
      11        5       27 1        
      12        6        7 ar       
      13        6       33 1        
      14        7        8 ar       
      15        7       34 1        
      16        8        9 1        
      17        9       10 1        
      18       10       11 1        
      19       10       35 1        
      20       10       36 1        
      21       11       12 1        
      22       11       37 1        
      23       11       38 1        
      24       12       13 1        
      25       12       39 1        
      26       12       40 1        
      27       13       14 2        
      28       13       15 1        
      29       15       16 1        
      30       16       17 1        
      31       16       41 1        
      32       16       42 1        
      33       17       18 2        
      34       17       19 am       
      35       19       20 1        
      36       19       43 1        
      37       20       25 ar       
      38       20       21 ar       
      39       21       22 ar       
      40       21       44 1        
      41       22       23 ar       
      42       22       45 1        
      43       23       24 ar       
      44       23       26 1        
      45       24       25 ar       
      46       24       46 1        
      47       25       47 1        
      48       27       28 3        

