#        1GCZ_R01_S0001_C0000_L00003_S0001_C0016_G0010_E0001.mol2
#        Tue Jun  6 09:54:49 2017
#        Descriptor:     29    13    16    15     3    13
#        Energy - RMSD - RMSD MassCentre:     -59.8186    999.9999    999.9999
#        Receptor:       1  Surface Point:     1  Conformer:     0
#        Ligand:         3  Surface Point:     1  Conformer:    16
#        BUDE Formal Charge: 0
#        ATOM Count: 58
#        Heavy ATOM Count: 30
@<TRIPOS>MOLECULE
ZINC61580633_1GCZ_R01_S0001_C0000_L00003_S0001_C0016_G0010_E0001
 58 59 0 0 0
SMALL
USER_CHARGES
@<TRIPOS>ATOM
       1 C1         3.8402  -13.8218    7.8904 C.3       1 <0>        -0.1532 
       2 C2         2.7789  -13.1672    8.7700 C.3       1 <0>        -0.1224 
       3 C3         2.2113  -11.9417    8.0553 C.3       1 <0>        -0.1198 
       4 C4         3.3333  -10.9357    7.8020 C.3       1 <0>         0.0610 
       5 O1         2.8021   -9.7889    7.1332 O.3       1 <0>        -0.3878 
       6 C5         3.8100   -8.8096    6.8689 C.3       1 <0>         0.0487 
       7 C6         3.1818   -7.6132    6.1556 C.3       1 <0>         0.1244 
       8 N1         4.2178   -6.6065    5.8839 N.am      1 <0>        -0.7216 
       9 C7         3.8974   -5.4731    5.2659 C.2       1 <0>         0.5161 
      10 O2         2.7349   -5.2669    4.9216 O.2       1 <0>        -0.5151 
      11 C8         4.9618   -4.4390    4.9868 C.3       1 <0>         0.0490 
      12 O3         5.8515   -4.9312    3.9813 O.3       1 <0>        -0.3194 
      13 C9         6.8748   -4.1385    3.5981 C.2       1 <0>         0.5417 
      14 O4         7.0190   -3.0388    4.1064 O.2       1 <0>        -0.5337 
      15 C10        7.8224   -4.6037    2.5610 C.2       1 <0>        -0.2559 
      16 C11        7.7481   -5.9212    1.8909 C.2       1 <0>        -0.0791 
      17 C12        8.7310   -6.0974    1.0048 C.2       1 <0>        -0.2585 
      18 S1         9.8141   -4.7015    0.9003 S.3       1 <0>         0.3028 
      19 C13        8.8583   -3.8682    2.1350 C.2       1 <0>         0.0893 
      20 N2         9.1197   -2.6189    2.6329 N.am      1 <0>        -0.6099 
      21 C14       10.1602   -1.9257    2.1794 C.2       1 <0>         0.5551 
      22 O5        10.8881   -2.4063    1.3122 O.2       1 <0>        -0.4939 
      23 C15       10.4412   -0.5763    2.7183 C.ar      1 <0>        -0.1466 
      24 C16       11.5484    0.1170    2.2147 C.ar      1 <0>        -0.0772 
      25 C17       11.9081    1.3651    2.7366 C.ar      1 <0>        -0.1241 
      26 C18       11.1725    1.9392    3.7800 C.ar      1 <0>        -0.0446 
      27 C19       10.0340    1.2731    4.2492 C.ar      1 <0>        -0.1261 
      28 C20        9.6607    0.0386    3.7045 C.ar      1 <0>        -0.0460 
      29 C21       11.6132    3.2571    4.3711 C.3       1 <0>        -0.0928 
      30 C22       12.5685    2.9984    5.5325 C.3       1 <0>        -0.1485 
      31 H1         4.6468  -13.1145    7.7092 H         1 <0>         0.0567 
      32 H2         3.3941  -14.1146    6.9422 H         1 <0>         0.0554 
      33 H3         4.2348  -14.7020    8.3934 H         1 <0>         0.0557 
      34 H4         1.9776  -13.8777    8.9622 H         1 <0>         0.0632 
      35 H5         3.2269  -12.8611    9.7131 H         1 <0>         0.0635 
      36 H6         1.7754  -12.2444    7.1057 H         1 <0>         0.0711 
      37 H7         1.4456  -11.4813    8.6763 H         1 <0>         0.0704 
      38 H8         3.7696  -10.6315    8.7512 H         1 <0>         0.0498 
      39 H9         4.0992  -11.3949    7.1805 H         1 <0>         0.0505 
      40 H10        4.5816   -9.2436    6.2365 H         1 <0>         0.0584 
      41 H11        4.2518   -8.4804    7.8071 H         1 <0>         0.0702 
      42 H12        2.4105   -7.1775    6.7873 H         1 <0>         0.0872 
      43 H13        2.7403   -7.9408    5.2167 H         1 <0>         0.0805 
      44 H14        5.1729   -6.7748    6.1662 H         1 <0>         0.4058 
      45 H15        4.4937   -3.5209    4.6379 H         1 <0>         0.1008 
      46 H16        5.5210   -4.2382    5.8982 H         1 <0>         0.0999 
      47 H17        6.9698   -6.6395    2.1020 H         1 <0>         0.1557 
      48 H18        8.8321   -6.9955    0.4137 H         1 <0>         0.1929 
      49 H19        8.5220   -2.2242    3.3449 H         1 <0>         0.4317 
      50 H20       12.1355   -0.3157    1.4182 H         1 <0>         0.1287 
      51 H21       12.7606    1.8934    2.3359 H         1 <0>         0.1326 
      52 H22        9.4463    1.7267    5.0336 H         1 <0>         0.1342 
      53 H23        8.7415   -0.3993    4.0645 H         1 <0>         0.1410 
      54 H24       10.7427    3.8015    4.7310 H         1 <0>         0.0777 
      55 H25       12.1193    3.8448    3.6082 H         1 <0>         0.0771 
      56 H26       13.4443    2.4650    5.1690 H         1 <0>         0.0623 
      57 H27       12.0656    2.3987    6.2883 H         1 <0>         0.0572 
      58 H28       12.8755    3.9475    5.9668 H         1 <0>         0.0578 
@<TRIPOS>BOND
       1        1        2 1        
       2        1       31 1        
       3        1       32 1        
       4        1       33 1        
       5        2        3 1        
       6        2       34 1        
       7        2       35 1        
       8        3        4 1        
       9        3       36 1        
      10        3       37 1        
      11        4        5 1        
      12        4       38 1        
      13        4       39 1        
      14        5        6 1        
      15        6        7 1        
      16        6       40 1        
      17        6       41 1        
      18        7        8 1        
      19        7       42 1        
      20        7       43 1        
      21        8        9 am       
      22        8       44 1        
      23        9       10 2        
      24        9       11 1        
      25       11       12 1        
      26       11       45 1        
      27       11       46 1        
      28       12       13 1        
      29       13       14 2        
      30       13       15 1        
      31       15       19 2        
      32       15       16 1        
      33       16       17 2        
      34       16       47 1        
      35       17       18 1        
      36       17       48 1        
      37       18       19 1        
      38       19       20 1        
      39       20       21 am       
      40       20       49 1        
      41       21       22 2        
      42       21       23 1        
      43       23       28 ar       
      44       23       24 ar       
      45       24       25 ar       
      46       24       50 1        
      47       25       26 ar       
      48       25       51 1        
      49       26       27 ar       
      50       26       29 1        
      51       27       28 ar       
      52       27       52 1        
      53       28       53 1        
      54       29       30 1        
      55       29       54 1        
      56       29       55 1        
      57       30       56 1        
      58       30       57 1        
      59       30       58 1        

