#        1GCZ_R01_S0001_C0000_L00011_S0001_C0042_G0010_E0001.mol2
#        Tue Jun  6 09:58:28 2017
#        Descriptor:     19     1     8    10     3    15
#        Energy - RMSD - RMSD MassCentre:     -58.3833    999.9999    999.9999
#        Receptor:       1  Surface Point:     1  Conformer:     0
#        Ligand:        11  Surface Point:     1  Conformer:    42
#        BUDE Formal Charge: 0
#        ATOM Count: 47
#        Heavy ATOM Count: 28
@<TRIPOS>MOLECULE
ZINC61303593_1GCZ_R01_S0001_C0000_L00011_S0001_C0042_G0010_E0001
 47 48 0 0 0
SMALL
USER_CHARGES
@<TRIPOS>ATOM
       1 C1         7.7569   -6.2046    4.3906 C.3       1 <0>         0.0220 
       2 O1         6.4247   -6.4132    4.8664 O.3       1 <0>        -0.3006 
       3 C2         5.6965   -5.3146    5.2400 C.ar      1 <0>         0.1008 
       4 C3         6.2329   -4.2358    5.9528 C.ar      1 <0>        -0.1273 
       5 C4         5.4346   -3.1410    6.3051 C.ar      1 <0>        -0.0284 
       6 C5         4.0879   -3.1229    5.9425 C.ar      1 <0>        -0.0603 
       7 C6         3.5478   -4.1999    5.2297 C.ar      1 <0>        -0.1775 
       8 C7         4.3446   -5.2954    4.8766 C.ar      1 <0>         0.1359 
       9 O2         3.8770   -6.3787    4.1805 O.3       1 <0>        -0.2949 
      10 C8         2.6007   -6.9106    4.5456 C.3       1 <0>         0.0554 
      11 C9         2.6420   -7.3781    5.9997 C.3       1 <0>        -0.1108 
      12 C10        1.2784   -7.9464    6.3899 C.3       1 <0>        -0.1085 
      13 C11        0.2275   -6.8708    6.2516 C.2       1 <0>         0.4668 
      14 O3         0.5361   -5.7767    5.8833 O.2       1 <0>        -0.4984 
      15 O4        -1.0614   -7.1455    6.5443 O.3       1 <0>        -0.3293 
      16 C12       -2.0209   -6.0953    6.3983 C.3       1 <0>         0.0498 
      17 C13       -1.6906   -4.9762    7.3567 C.2       1 <0>         0.5168 
      18 O5        -1.5953   -3.8210    6.9452 O.2       1 <0>        -0.4913 
      19 N1        -1.5026   -5.2398    8.6467 N.am      1 <0>        -0.6701 
      20 C14       -1.1930   -4.1922    9.5461 C.ar      1 <0>         0.1579 
      21 C15       -1.0864   -2.8772    9.0779 C.ar      1 <0>        -0.1362 
      22 C16       -0.7749   -1.8418    9.9674 C.ar      1 <0>        -0.0710 
      23 C17       -0.5780   -2.1197   11.3238 C.ar      1 <0>        -0.1038 
      24 C18       -0.6868   -3.4345   11.7921 C.ar      1 <0>        -0.0707 
      25 C19       -0.9954   -4.4715   10.9035 C.ar      1 <0>        -0.1148 
      26 Br1       -0.1555   -0.7139   12.5301 Br        1 <0>        -0.0469 
      27 C20        6.0010   -2.0291    7.0435 C.1       1 <0>         0.2541 
      28 N2         6.4534   -1.1391    7.6342 N.1       1 <0>        -0.4124 
      29 H1         8.3513   -5.7361    5.1723 H         1 <0>         0.1051 
      30 H2         8.1994   -7.1616    4.1220 H         1 <0>         0.0578 
      31 H3         7.7319   -5.5578    3.5162 H         1 <0>         0.0579 
      32 H4         7.2668   -4.1911    6.2619 H         1 <0>         0.1456 
      33 H5         3.4699   -2.2797    6.2130 H         1 <0>         0.1399 
      34 H6         2.5001   -4.1279    4.9778 H         1 <0>         0.1478 
      35 H7         1.8407   -6.1401    4.4345 H         1 <0>         0.0709 
      36 H8         2.3606   -7.7536    3.9010 H         1 <0>         0.0709 
      37 H9         3.4012   -8.1492    6.1121 H         1 <0>         0.0878 
      38 H10        2.8813   -6.5359    6.6455 H         1 <0>         0.0877 
      39 H11        1.0315   -8.7799    5.7358 H         1 <0>         0.1149 
      40 H12        1.3101   -8.2911    7.4213 H         1 <0>         0.1150 
      41 H13       -3.0151   -6.4785    6.6180 H         1 <0>         0.1060 
      42 H14       -1.9941   -5.7181    5.3782 H         1 <0>         0.1063 
      43 H15       -1.5808   -6.1884    8.9846 H         1 <0>         0.4168 
      44 H16       -1.2469   -2.6657    8.0310 H         1 <0>         0.1372 
      45 H17       -0.6927   -0.8265    9.6089 H         1 <0>         0.1390 
      46 H18       -0.5329   -3.6466   12.8399 H         1 <0>         0.1383 
      47 H19       -1.0838   -5.4867   11.2609 H         1 <0>         0.1486 
@<TRIPOS>BOND
       1        1        2 1        
       2        1       29 1        
       3        1       30 1        
       4        1       31 1        
       5        2        3 1        
       6        3        8 ar       
       7        3        4 ar       
       8        4        5 ar       
       9        4       32 1        
      10        5        6 ar       
      11        5       27 1        
      12        6        7 ar       
      13        6       33 1        
      14        7        8 ar       
      15        7       34 1        
      16        8        9 1        
      17        9       10 1        
      18       10       11 1        
      19       10       35 1        
      20       10       36 1        
      21       11       12 1        
      22       11       37 1        
      23       11       38 1        
      24       12       13 1        
      25       12       39 1        
      26       12       40 1        
      27       13       14 2        
      28       13       15 1        
      29       15       16 1        
      30       16       17 1        
      31       16       41 1        
      32       16       42 1        
      33       17       18 2        
      34       17       19 am       
      35       19       20 1        
      36       19       43 1        
      37       20       25 ar       
      38       20       21 ar       
      39       21       22 ar       
      40       21       44 1        
      41       22       23 ar       
      42       22       45 1        
      43       23       24 ar       
      44       23       26 1        
      45       24       25 ar       
      46       24       46 1        
      47       25       47 1        
      48       27       28 3        

