#        1GCZ_R01_S0001_C0000_L00011_S0001_C0042_G0010_E0001.mol2
#        Tue Jun  6 14:12:41 2017
#        Descriptor:     16    33     1     9     4    15
#        Energy - RMSD - RMSD MassCentre:     -67.1270    999.9999    999.9999
#        Receptor:       1  Surface Point:     1  Conformer:     0
#        Ligand:        11  Surface Point:     1  Conformer:    42
#        BUDE Formal Charge: 0
#        ATOM Count: 47
#        Heavy ATOM Count: 28
@<TRIPOS>MOLECULE
ZINC61303593_1GCZ_R01_S0001_C0000_L00011_S0001_C0042_G0010_E0001
 47 48 0 0 0
SMALL
USER_CHARGES
@<TRIPOS>ATOM
       1 C1         1.9265  -10.2944    7.9609 C.3       1 <0>         0.0220 
       2 O1         1.3090   -9.0050    7.9906 O.3       1 <0>        -0.3006 
       3 C2         1.8754   -8.0042    7.2461 C.ar      1 <0>         0.1008 
       4 C3         3.2570   -7.8059    7.1388 C.ar      1 <0>        -0.1273 
       5 C4         3.7735   -6.7630    6.3607 C.ar      1 <0>        -0.0284 
       6 C5         2.9026   -5.9098    5.6832 C.ar      1 <0>        -0.0603 
       7 C6         1.5203   -6.1048    5.7881 C.ar      1 <0>        -0.1775 
       8 C7         1.0022   -7.1472    6.5657 C.ar      1 <0>         0.1359 
       9 O2        -0.3384   -7.3908    6.7088 O.3       1 <0>        -0.2949 
      10 C8        -1.2061   -6.2715    6.9067 C.3       1 <0>         0.0554 
      11 C9        -0.8101   -5.5418    8.1894 C.3       1 <0>        -0.1108 
      12 C10       -1.7372   -4.3458    8.4009 C.3       1 <0>        -0.1085 
      13 C11       -1.6037   -3.3944    7.2358 C.2       1 <0>         0.4668 
      14 O3        -0.8530   -3.6461    6.3408 O.2       1 <0>        -0.4984 
      15 O4        -2.3330   -2.2588    7.2055 O.3       1 <0>        -0.3293 
      16 C12       -2.1730   -1.3888    6.0819 C.3       1 <0>         0.0498 
      17 C13       -0.7531   -0.8765    6.0413 C.2       1 <0>         0.5168 
      18 O5        -0.0926   -0.9737    5.0083 O.2       1 <0>        -0.4913 
      19 N1        -0.2162   -0.3200    7.1234 N.am      1 <0>        -0.6701 
      20 C14        1.1142    0.1605    7.0871 C.ar      1 <0>         0.1579 
      21 C15        1.8651    0.0515    5.9106 C.ar      1 <0>        -0.1362 
      22 C16        3.1832    0.5223    5.8768 C.ar      1 <0>        -0.0710 
      23 C17        3.7468    1.1081    7.0149 C.ar      1 <0>        -0.1038 
      24 C18        2.9949    1.2190    8.1905 C.ar      1 <0>        -0.0707 
      25 C19        1.6777    0.7460    8.2270 C.ar      1 <0>        -0.1148 
      26 Br1        5.5355    1.7469    6.9679 Br        1 <0>        -0.0469 
      27 C20        5.2065   -6.5670    6.2568 C.1       1 <0>         0.2541 
      28 N2         6.3527   -6.4097    6.1732 N.1       1 <0>        -0.4124 
      29 H1         2.9445  -10.2171    8.3371 H         1 <0>         0.1051 
      30 H2         1.3596  -10.9818    8.5855 H         1 <0>         0.0578 
      31 H3         1.9443  -10.6639    6.9378 H         1 <0>         0.0579 
      32 H4         3.9814   -8.4319    7.6386 H         1 <0>         0.1456 
      33 H5         3.2984   -5.1044    5.0823 H         1 <0>         0.1399 
      34 H6         0.8980   -5.4124    5.2408 H         1 <0>         0.1478 
      35 H7        -1.1202   -5.5913    6.0620 H         1 <0>         0.0709 
      36 H8        -2.2337   -6.6189    6.9904 H         1 <0>         0.0709 
      37 H9        -0.8963   -6.2208    9.0351 H         1 <0>         0.0878 
      38 H10        0.2172   -5.1932    8.1067 H         1 <0>         0.0877 
      39 H11       -2.7664   -4.6917    8.4697 H         1 <0>         0.1149 
      40 H12       -1.4642   -3.8326    9.3205 H         1 <0>         0.1150 
      41 H13       -2.8584   -0.5487    6.1724 H         1 <0>         0.1060 
      42 H14       -2.3870   -1.9352    5.1659 H         1 <0>         0.1063 
      43 H15       -0.7586   -0.2402    7.9718 H         1 <0>         0.4168 
      44 H16        1.4236   -0.3944    5.0316 H         1 <0>         0.1372 
      45 H17        3.7644    0.4400    4.9704 H         1 <0>         0.1390 
      46 H18        3.4329    1.6704    9.0684 H         1 <0>         0.1383 
      47 H19        1.0927    0.8326    9.1306 H         1 <0>         0.1486 
@<TRIPOS>BOND
       1        1        2 1        
       2        1       29 1        
       3        1       30 1        
       4        1       31 1        
       5        2        3 1        
       6        3        8 ar       
       7        3        4 ar       
       8        4        5 ar       
       9        4       32 1        
      10        5        6 ar       
      11        5       27 1        
      12        6        7 ar       
      13        6       33 1        
      14        7        8 ar       
      15        7       34 1        
      16        8        9 1        
      17        9       10 1        
      18       10       11 1        
      19       10       35 1        
      20       10       36 1        
      21       11       12 1        
      22       11       37 1        
      23       11       38 1        
      24       12       13 1        
      25       12       39 1        
      26       12       40 1        
      27       13       14 2        
      28       13       15 1        
      29       15       16 1        
      30       16       17 1        
      31       16       41 1        
      32       16       42 1        
      33       17       18 2        
      34       17       19 am       
      35       19       20 1        
      36       19       43 1        
      37       20       25 ar       
      38       20       21 ar       
      39       21       22 ar       
      40       21       44 1        
      41       22       23 ar       
      42       22       45 1        
      43       23       24 ar       
      44       23       26 1        
      45       24       25 ar       
      46       24       46 1        
      47       25       47 1        
      48       27       28 3        

