#        1GCZ_R01_S0001_C0000_L00011_S0001_C0043_G0010_E0001.mol2
#        Tue Jun  6 09:58:28 2017
#        Descriptor:     21     2    18     7     8    12
#        Energy - RMSD - RMSD MassCentre:     -84.4478    999.9999    999.9999
#        Receptor:       1  Surface Point:     1  Conformer:     0
#        Ligand:        11  Surface Point:     1  Conformer:    43
#        BUDE Formal Charge: 0
#        ATOM Count: 47
#        Heavy ATOM Count: 28
@<TRIPOS>MOLECULE
ZINC61303593_1GCZ_R01_S0001_C0000_L00011_S0001_C0043_G0010_E0001
 47 48 0 0 0
SMALL
USER_CHARGES
@<TRIPOS>ATOM
       1 C1        -0.7827   -2.8547    0.2376 C.3       1 <0>         0.0220 
       2 O1        -0.4312   -1.5785    0.7784 O.3       1 <0>        -0.3006 
       3 C2        -0.3569   -0.5147   -0.0815 C.ar      1 <0>         0.1008 
       4 C3         0.1962   -0.5937   -1.3652 C.ar      1 <0>        -0.1273 
       5 C4         0.2424    0.5316   -2.1967 C.ar      1 <0>        -0.0284 
       6 C5        -0.2681    1.7474   -1.7426 C.ar      1 <0>        -0.0603 
       7 C6        -0.8220    1.8306   -0.4596 C.ar      1 <0>        -0.1775 
       8 C7        -0.8691    0.7063    0.3732 C.ar      1 <0>         0.1359 
       9 O2        -1.3972    0.7220    1.6372 O.3       1 <0>        -0.2949 
      10 C8        -1.0862    1.8343    2.4803 C.3       1 <0>         0.0554 
      11 C9        -1.7710    1.6532    3.8342 C.3       1 <0>        -0.1108 
      12 C10       -1.2605    0.3736    4.4950 C.3       1 <0>        -0.1085 
      13 C11        0.2302    0.4800    4.7114 C.2       1 <0>         0.4668 
      14 O3         0.8147    1.4666    4.3750 O.2       1 <0>        -0.4984 
      15 O4         0.9030   -0.5400    5.2852 O.3       1 <0>        -0.3293 
      16 C12        0.1611   -1.7000    5.6710 C.3       1 <0>         0.0498 
      17 C13       -0.8449   -1.3230    6.7321 C.2       1 <0>         0.5168 
      18 O5        -2.0280   -1.6305    6.5959 O.2       1 <0>        -0.4913 
      19 N1        -0.4515   -0.6580    7.8146 N.am      1 <0>        -0.6701 
      20 C14       -1.3930   -0.3040    8.8098 C.ar      1 <0>         0.1579 
      21 C15       -2.7392   -0.6556    8.6555 C.ar      1 <0>        -0.1362 
      22 C16       -3.6713   -0.3004    9.6381 C.ar      1 <0>        -0.0710 
      23 C17       -3.2566    0.3982   10.7764 C.ar      1 <0>        -0.1038 
      24 C18       -1.9100    0.7478   10.9315 C.ar      1 <0>        -0.0707 
      25 C19       -0.9771    0.3960    9.9486 C.ar      1 <0>        -0.1148 
      26 Br1       -4.5222    0.8795   12.1093 Br        1 <0>        -0.0469 
      27 C20        0.8176    0.4381   -3.5244 C.1       1 <0>         0.2541 
      28 N2         1.2776    0.3639   -4.5867 N.1       1 <0>        -0.4124 
      29 H1        -0.0409   -3.1518   -0.5006 H         1 <0>         0.1051 
      30 H2        -0.8139   -3.5909    1.0381 H         1 <0>         0.0578 
      31 H3        -1.7605   -2.7906   -0.2352 H         1 <0>         0.0579 
      32 H4         0.6071   -1.5054   -1.7732 H         1 <0>         0.1456 
      33 H5        -0.2337    2.6171   -2.3820 H         1 <0>         0.1399 
      34 H6        -1.2007    2.7982   -0.1651 H         1 <0>         0.1478 
      35 H7        -0.0093    1.8913    2.6241 H         1 <0>         0.0709 
      36 H8        -1.4398    2.7523    2.0157 H         1 <0>         0.0709 
      37 H9        -1.5454    2.5050    4.4723 H         1 <0>         0.0878 
      38 H10       -2.8471    1.5820    3.6905 H         1 <0>         0.0877 
      39 H11       -1.7566    0.2369    5.4535 H         1 <0>         0.1149 
      40 H12       -1.4730   -0.4774    3.8514 H         1 <0>         0.1150 
      41 H13        0.8413   -2.4509    6.0675 H         1 <0>         0.1060 
      42 H14       -0.3598   -2.1027    4.8050 H         1 <0>         0.1063 
      43 H15        0.5201   -0.4055    7.9264 H         1 <0>         0.4168 
      44 H16       -3.0540   -1.2020    7.7787 H         1 <0>         0.1372 
      45 H17       -4.7102   -0.5710    9.5217 H         1 <0>         0.1390 
      46 H18       -1.5926    1.2886   11.8108 H         1 <0>         0.1383 
      47 H19        0.0634    0.6605   10.0656 H         1 <0>         0.1486 
@<TRIPOS>BOND
       1        1        2 1        
       2        1       29 1        
       3        1       30 1        
       4        1       31 1        
       5        2        3 1        
       6        3        8 ar       
       7        3        4 ar       
       8        4        5 ar       
       9        4       32 1        
      10        5        6 ar       
      11        5       27 1        
      12        6        7 ar       
      13        6       33 1        
      14        7        8 ar       
      15        7       34 1        
      16        8        9 1        
      17        9       10 1        
      18       10       11 1        
      19       10       35 1        
      20       10       36 1        
      21       11       12 1        
      22       11       37 1        
      23       11       38 1        
      24       12       13 1        
      25       12       39 1        
      26       12       40 1        
      27       13       14 2        
      28       13       15 1        
      29       15       16 1        
      30       16       17 1        
      31       16       41 1        
      32       16       42 1        
      33       17       18 2        
      34       17       19 am       
      35       19       20 1        
      36       19       43 1        
      37       20       25 ar       
      38       20       21 ar       
      39       21       22 ar       
      40       21       44 1        
      41       22       23 ar       
      42       22       45 1        
      43       23       24 ar       
      44       23       26 1        
      45       24       25 ar       
      46       24       46 1        
      47       25       47 1        
      48       27       28 3        

