#        1GCZ_R01_S0001_C0000_L00011_S0001_C0044_G0010_E0001.mol2
#        Tue Jun  6 09:58:29 2017
#        Descriptor:     14     5    11     8     6    15
#        Energy - RMSD - RMSD MassCentre:     -69.1578    999.9999    999.9999
#        Receptor:       1  Surface Point:     1  Conformer:     0
#        Ligand:        11  Surface Point:     1  Conformer:    44
#        BUDE Formal Charge: 0
#        ATOM Count: 47
#        Heavy ATOM Count: 28
@<TRIPOS>MOLECULE
ZINC61303593_1GCZ_R01_S0001_C0000_L00011_S0001_C0044_G0010_E0001
 47 48 0 0 0
SMALL
USER_CHARGES
@<TRIPOS>ATOM
       1 C1         2.7709    0.3634    3.9854 C.3       1 <0>         0.0220 
       2 O1         1.6234   -0.4776    4.1293 O.3       1 <0>        -0.3006 
       3 C2         0.5963   -0.3215    3.2363 C.ar      1 <0>         0.1008 
       4 C3         0.7873   -0.1024    1.8669 C.ar      1 <0>        -0.1273 
       5 C4        -0.3058    0.0494    1.0056 C.ar      1 <0>        -0.0284 
       6 C5        -1.6020   -0.0182    1.5159 C.ar      1 <0>        -0.0603 
       7 C6        -1.7972   -0.2371    2.8848 C.ar      1 <0>        -0.1775 
       8 C7        -0.7052   -0.3891    3.7475 C.ar      1 <0>         0.1359 
       9 O2        -0.8291   -0.6053    5.0947 O.3       1 <0>        -0.2949 
      10 C8        -1.8230   -1.5337    5.5364 C.3       1 <0>         0.0554 
      11 C9        -1.7920   -1.6244    7.0613 C.3       1 <0>        -0.1108 
      12 C10       -0.4184   -2.1179    7.5135 C.3       1 <0>        -0.1085 
      13 C11       -0.1624   -3.4898    6.9366 C.2       1 <0>         0.4668 
      14 O3        -0.9852   -4.0107    6.2441 O.2       1 <0>        -0.4984 
      15 O4         0.9968   -4.1282    7.2035 O.3       1 <0>        -0.3293 
      16 C12        1.9511   -3.4652    8.0370 C.3       1 <0>         0.0498 
      17 C13        1.3594   -3.2565    9.4105 C.2       1 <0>         0.5168 
      18 O5         1.3732   -2.1388    9.9236 O.2       1 <0>        -0.4913 
      19 N1         0.8228   -4.2820   10.0657 N.am      1 <0>        -0.6701 
      20 C14        0.2680   -4.0881   11.3528 C.ar      1 <0>         0.1579 
      21 C15        0.2822   -2.8155   11.9360 C.ar      1 <0>        -0.1362 
      22 C16       -0.2623   -2.6253   13.2118 C.ar      1 <0>        -0.0710 
      23 C17       -0.8269   -3.7040   13.8999 C.ar      1 <0>        -0.1038 
      24 C18       -0.8430   -4.9760   13.3157 C.ar      1 <0>        -0.0707 
      25 C19       -0.2964   -5.1686   12.0412 C.ar      1 <0>        -0.1148 
      26 Br1       -1.5657   -3.4448   15.6311 Br        1 <0>        -0.0469 
      27 C20       -0.0960    0.2759   -0.4112 C.1       1 <0>         0.2541 
      28 N2         0.0712    0.4571   -1.5447 N.1       1 <0>        -0.4124 
      29 H1         2.4726    1.4042    4.0917 H         1 <0>         0.1051 
      30 H2         3.5008    0.1143    4.7528 H         1 <0>         0.0578 
      31 H3         3.2110    0.2102    3.0022 H         1 <0>         0.0579 
      32 H4         1.7650   -0.0401    1.4122 H         1 <0>         0.1456 
      33 H5        -2.4470    0.0985    0.8537 H         1 <0>         0.1399 
      34 H6        -2.8231   -0.2794    3.2197 H         1 <0>         0.1478 
      35 H7        -2.8053   -1.1951    5.2138 H         1 <0>         0.0709 
      36 H8        -1.6190   -2.5141    5.1112 H         1 <0>         0.0709 
      37 H9        -1.9820   -0.6418    7.4878 H         1 <0>         0.0878 
      38 H10       -2.5562   -2.3211    7.3994 H         1 <0>         0.0877 
      39 H11        0.3481   -1.4295    7.1640 H         1 <0>         0.1149 
      40 H12       -0.3908   -2.1710    8.5997 H         1 <0>         0.1150 
      41 H13        2.2055   -2.5011    7.6021 H         1 <0>         0.1060 
      42 H14        2.8482   -4.0753    8.1182 H         1 <0>         0.1063 
      43 H15        0.8115   -5.1999    9.6443 H         1 <0>         0.4168 
      44 H16        0.7121   -1.9835   11.3980 H         1 <0>         0.1372 
      45 H17       -0.2531   -1.6445   13.6636 H         1 <0>         0.1390 
      46 H18       -1.2783   -5.8077   13.8497 H         1 <0>         0.1383 
      47 H19       -0.3096   -6.1474   11.5851 H         1 <0>         0.1486 
@<TRIPOS>BOND
       1        1        2 1        
       2        1       29 1        
       3        1       30 1        
       4        1       31 1        
       5        2        3 1        
       6        3        8 ar       
       7        3        4 ar       
       8        4        5 ar       
       9        4       32 1        
      10        5        6 ar       
      11        5       27 1        
      12        6        7 ar       
      13        6       33 1        
      14        7        8 ar       
      15        7       34 1        
      16        8        9 1        
      17        9       10 1        
      18       10       11 1        
      19       10       35 1        
      20       10       36 1        
      21       11       12 1        
      22       11       37 1        
      23       11       38 1        
      24       12       13 1        
      25       12       39 1        
      26       12       40 1        
      27       13       14 2        
      28       13       15 1        
      29       15       16 1        
      30       16       17 1        
      31       16       41 1        
      32       16       42 1        
      33       17       18 2        
      34       17       19 am       
      35       19       20 1        
      36       19       43 1        
      37       20       25 ar       
      38       20       21 ar       
      39       21       22 ar       
      40       21       44 1        
      41       22       23 ar       
      42       22       45 1        
      43       23       24 ar       
      44       23       26 1        
      45       24       25 ar       
      46       24       46 1        
      47       25       47 1        
      48       27       28 3        

