#        1GCZ_R01_S0001_C0000_L00011_S0001_C0044_G0010_E0001.mol2
#        Tue Jun  6 14:12:45 2017
#        Descriptor:     17     7     8     9     5    15
#        Energy - RMSD - RMSD MassCentre:     -66.1633    999.9999    999.9999
#        Receptor:       1  Surface Point:     1  Conformer:     0
#        Ligand:        11  Surface Point:     1  Conformer:    44
#        BUDE Formal Charge: 0
#        ATOM Count: 47
#        Heavy ATOM Count: 28
@<TRIPOS>MOLECULE
ZINC61303593_1GCZ_R01_S0001_C0000_L00011_S0001_C0044_G0010_E0001
 47 48 0 0 0
SMALL
USER_CHARGES
@<TRIPOS>ATOM
       1 C1         3.0772    0.1510    4.1526 C.3       1 <0>         0.0220 
       2 O1         1.9316   -0.6774    4.3672 O.3       1 <0>        -0.3006 
       3 C2         0.7225   -0.2360    3.8980 C.ar      1 <0>         0.1008 
       4 C3         0.5565    0.3980    2.6610 C.ar      1 <0>        -0.1273 
       5 C4        -0.7076    0.8262    2.2386 C.ar      1 <0>        -0.0284 
       6 C5        -1.8166    0.6195    3.0586 C.ar      1 <0>        -0.0603 
       7 C6        -1.6548   -0.0141    4.2964 C.ar      1 <0>        -0.1775 
       8 C7        -0.3914   -0.4429    4.7204 C.ar      1 <0>         0.1359 
       9 O2        -0.1668   -1.0682    5.9185 O.3       1 <0>        -0.2949 
      10 C8        -1.0936   -2.0749    6.3338 C.3       1 <0>         0.0554 
      11 C9        -0.6598   -2.6387    7.6861 C.3       1 <0>        -0.1108 
      12 C10        0.7267   -3.2671    7.5537 C.3       1 <0>        -0.1085 
      13 C11        0.6744   -4.3928    6.5485 C.2       1 <0>         0.4668 
      14 O3        -0.3545   -4.6599    6.0024 O.2       1 <0>        -0.4984 
      15 O4         1.7905   -5.0980    6.2668 O.3       1 <0>        -0.3293 
      16 C12        2.9979   -4.7419    6.9452 C.3       1 <0>         0.0498 
      17 C13        2.8255   -4.9657    8.4285 C.2       1 <0>         0.5168 
      18 O5         3.0928   -4.0650    9.2223 O.2       1 <0>        -0.4913 
      19 N1         2.3844   -6.1375    8.8770 N.am      1 <0>        -0.6701 
      20 C14        2.2223   -6.3488   10.2667 C.ar      1 <0>         0.1579 
      21 C15        2.5248   -5.3229   11.1699 C.ar      1 <0>        -0.1362 
      22 C16        2.3692   -5.5343   12.5452 C.ar      1 <0>        -0.0710 
      23 C17        1.9046   -6.7665   13.0159 C.ar      1 <0>        -0.1038 
      24 C18        1.6001   -7.7915   12.1124 C.ar      1 <0>        -0.0707 
      25 C19        1.7578   -7.5828   10.7370 C.ar      1 <0>        -0.1148 
      26 Br1        1.6936   -7.0523   14.8824 Br        1 <0>        -0.0469 
      27 C20       -0.8678    1.4819    0.9553 C.1       1 <0>         0.2541 
      28 N2        -0.9965    2.0065   -0.0713 N.1       1 <0>        -0.4124 
      29 H1         2.9274    1.1102    4.6437 H         1 <0>         0.1051 
      30 H2         3.9583   -0.3354    4.5660 H         1 <0>         0.0578 
      31 H3         3.2160    0.3073    3.0849 H         1 <0>         0.0579 
      32 H4         1.3753    0.5864    1.9824 H         1 <0>         0.1456 
      33 H5        -2.7930    0.9489    2.7352 H         1 <0>         0.1399 
      34 H6        -2.5501   -0.1455    4.8859 H         1 <0>         0.1478 
      35 H7        -2.0864   -1.6394    6.4249 H         1 <0>         0.0709 
      36 H8        -1.1144   -2.8756    5.5976 H         1 <0>         0.0709 
      37 H9        -0.6250   -1.8364    8.4200 H         1 <0>         0.0878 
      38 H10       -1.3711   -3.3960    8.0090 H         1 <0>         0.0877 
      39 H11        1.4362   -2.5141    7.2172 H         1 <0>         0.1149 
      40 H12        1.0422   -3.6578    8.5187 H         1 <0>         0.1150 
      41 H13        3.2225   -3.6936    6.7609 H         1 <0>         0.1060 
      42 H14        3.8158   -5.3586    6.5787 H         1 <0>         0.1063 
      43 H15        2.1649   -6.8771    8.2251 H         1 <0>         0.4168 
      44 H16        2.8758   -4.3701   10.8019 H         1 <0>         0.1372 
      45 H17        2.6013   -4.7444   13.2440 H         1 <0>         0.1390 
      46 H18        1.2428   -8.7427   12.4785 H         1 <0>         0.1383 
      47 H19        1.5209   -8.3694   10.0360 H         1 <0>         0.1486 
@<TRIPOS>BOND
       1        1        2 1        
       2        1       29 1        
       3        1       30 1        
       4        1       31 1        
       5        2        3 1        
       6        3        8 ar       
       7        3        4 ar       
       8        4        5 ar       
       9        4       32 1        
      10        5        6 ar       
      11        5       27 1        
      12        6        7 ar       
      13        6       33 1        
      14        7        8 ar       
      15        7       34 1        
      16        8        9 1        
      17        9       10 1        
      18       10       11 1        
      19       10       35 1        
      20       10       36 1        
      21       11       12 1        
      22       11       37 1        
      23       11       38 1        
      24       12       13 1        
      25       12       39 1        
      26       12       40 1        
      27       13       14 2        
      28       13       15 1        
      29       15       16 1        
      30       16       17 1        
      31       16       41 1        
      32       16       42 1        
      33       17       18 2        
      34       17       19 am       
      35       19       20 1        
      36       19       43 1        
      37       20       25 ar       
      38       20       21 ar       
      39       21       22 ar       
      40       21       44 1        
      41       22       23 ar       
      42       22       45 1        
      43       23       24 ar       
      44       23       26 1        
      45       24       25 ar       
      46       24       46 1        
      47       25       47 1        
      48       27       28 3        

