#        1GCZ_R01_S0001_C0000_L00011_S0001_C0045_G0010_E0001.mol2
#        Tue Jun  6 09:58:30 2017
#        Descriptor:      1    31    12    11     6    12
#        Energy - RMSD - RMSD MassCentre:     -67.0080    999.9999    999.9999
#        Receptor:       1  Surface Point:     1  Conformer:     0
#        Ligand:        11  Surface Point:     1  Conformer:    45
#        BUDE Formal Charge: 0
#        ATOM Count: 47
#        Heavy ATOM Count: 28
@<TRIPOS>MOLECULE
ZINC61303593_1GCZ_R01_S0001_C0000_L00011_S0001_C0045_G0010_E0001
 47 48 0 0 0
SMALL
USER_CHARGES
@<TRIPOS>ATOM
       1 C1         3.7897   -6.6294    5.7311 C.3       1 <0>         0.0220 
       2 O1         3.9410   -5.6336    4.7162 O.3       1 <0>        -0.3006 
       3 C2         5.1444   -4.9851    4.6267 C.ar      1 <0>         0.1008 
       4 C3         6.3812   -5.6238    4.7761 C.ar      1 <0>        -0.1273 
       5 C4         7.5773   -4.9036    4.6731 C.ar      1 <0>        -0.0284 
       6 C5         7.5385   -3.5329    4.4184 C.ar      1 <0>        -0.0603 
       7 C6         6.3038   -2.8907    4.2682 C.ar      1 <0>        -0.1775 
       8 C7         5.1068   -3.6093    4.3709 C.ar      1 <0>         0.1359 
       9 O2         3.8680   -3.0403    4.2342 O.3       1 <0>        -0.2949 
      10 C8         3.6356   -1.7792    4.8670 C.3       1 <0>         0.0554 
      11 C9         3.8262   -1.9247    6.3760 C.3       1 <0>        -0.1108 
      12 C10        3.5779   -0.5771    7.0521 C.3       1 <0>        -0.1085 
      13 C11        2.1613   -0.1313    6.7788 C.2       1 <0>         0.4668 
      14 O3         1.4024    0.0400    7.6860 O.2       1 <0>        -0.4984 
      15 O4         1.7517    0.0738    5.5090 O.3       1 <0>        -0.3293 
      16 C12        0.4015    0.4955    5.2996 C.3       1 <0>         0.0498 
      17 C13        0.1520    0.6657    3.8200 C.2       1 <0>         0.5168 
      18 O5        -0.3298    1.7139    3.3934 O.2       1 <0>        -0.4913 
      19 N1         0.4535   -0.3184    2.9777 N.am      1 <0>        -0.6701 
      20 C14        0.2204   -0.1605    1.5911 C.ar      1 <0>         0.1579 
      21 C15       -0.3264    1.0332    1.1054 C.ar      1 <0>        -0.1362 
      22 C16       -0.5618    1.1869   -0.2662 C.ar      1 <0>        -0.0710 
      23 C17       -0.2438    0.1519   -1.1513 C.ar      1 <0>        -0.1038 
      24 C18        0.3050   -1.0409   -0.6657 C.ar      1 <0>        -0.0707 
      25 C19        0.5383   -1.1974    0.7059 C.ar      1 <0>        -0.1148 
      26 Br1       -0.5634    0.3615   -3.0125 Br        1 <0>        -0.0469 
      27 C20        8.8527   -5.5756    4.8298 C.1       1 <0>         0.2541 
      28 N2         9.8733   -6.1125    4.9550 N.1       1 <0>        -0.4124 
      29 H1         3.9275   -6.1734    6.7093 H         1 <0>         0.1051 
      30 H2         2.7930   -7.0613    5.6687 H         1 <0>         0.0578 
      31 H3         4.5336   -7.4101    5.5862 H         1 <0>         0.0579 
      32 H4         6.4768   -6.6811    4.9743 H         1 <0>         0.1456 
      33 H5         8.4598   -2.9750    4.3384 H         1 <0>         0.1399 
      34 H6         6.3388   -1.8291    4.0725 H         1 <0>         0.1478 
      35 H7         4.3399   -1.0444    4.4824 H         1 <0>         0.0709 
      36 H8         2.6192   -1.4508    4.6604 H         1 <0>         0.0709 
      37 H9         3.1220   -2.6586    6.7621 H         1 <0>         0.0878 
      38 H10        4.8427   -2.2521    6.5839 H         1 <0>         0.0877 
      39 H11        3.7256   -0.6764    8.1253 H         1 <0>         0.1149 
      40 H12        4.2724    0.1612    6.6567 H         1 <0>         0.1150 
      41 H13        0.2341    1.4435    5.8063 H         1 <0>         0.1060 
      42 H14       -0.2791   -0.2543    5.6975 H         1 <0>         0.1063 
      43 H15        0.8492   -1.1791    3.3281 H         1 <0>         0.4168 
      44 H16       -0.5633    1.8331    1.7914 H         1 <0>         0.1372 
      45 H17       -0.9829    2.1070   -0.6435 H         1 <0>         0.1390 
      46 H18        0.5483   -1.8392   -1.3512 H         1 <0>         0.1383 
      47 H19        0.9647   -2.1144    1.0847 H         1 <0>         0.1486 
@<TRIPOS>BOND
       1        1        2 1        
       2        1       29 1        
       3        1       30 1        
       4        1       31 1        
       5        2        3 1        
       6        3        8 ar       
       7        3        4 ar       
       8        4        5 ar       
       9        4       32 1        
      10        5        6 ar       
      11        5       27 1        
      12        6        7 ar       
      13        6       33 1        
      14        7        8 ar       
      15        7       34 1        
      16        8        9 1        
      17        9       10 1        
      18       10       11 1        
      19       10       35 1        
      20       10       36 1        
      21       11       12 1        
      22       11       37 1        
      23       11       38 1        
      24       12       13 1        
      25       12       39 1        
      26       12       40 1        
      27       13       14 2        
      28       13       15 1        
      29       15       16 1        
      30       16       17 1        
      31       16       41 1        
      32       16       42 1        
      33       17       18 2        
      34       17       19 am       
      35       19       20 1        
      36       19       43 1        
      37       20       25 ar       
      38       20       21 ar       
      39       21       22 ar       
      40       21       44 1        
      41       22       23 ar       
      42       22       45 1        
      43       23       24 ar       
      44       23       26 1        
      45       24       25 ar       
      46       24       46 1        
      47       25       47 1        
      48       27       28 3        

