#        1GCZ_R01_S0001_C0000_L00011_S0001_C0045_G0010_E0001.mol2
#        Tue Jun  6 14:12:47 2017
#        Descriptor:      6     4    20     7     9    15
#        Energy - RMSD - RMSD MassCentre:     -60.3973    999.9999    999.9999
#        Receptor:       1  Surface Point:     1  Conformer:     0
#        Ligand:        11  Surface Point:     1  Conformer:    45
#        BUDE Formal Charge: 0
#        ATOM Count: 47
#        Heavy ATOM Count: 28
@<TRIPOS>MOLECULE
ZINC61303593_1GCZ_R01_S0001_C0000_L00011_S0001_C0045_G0010_E0001
 47 48 0 0 0
SMALL
USER_CHARGES
@<TRIPOS>ATOM
       1 C1         2.8200   -0.5683    4.1716 C.3       1 <0>         0.0220 
       2 O1         1.4608   -0.6733    4.6029 O.3       1 <0>        -0.3006 
       3 C2         0.4862   -0.1653    3.7851 C.ar      1 <0>         0.1008 
       4 C3         0.4963   -0.3006    2.3917 C.ar      1 <0>        -0.1273 
       5 C4        -0.5310    0.2423    1.6109 C.ar      1 <0>        -0.0284 
       6 C5        -1.5785    0.9268    2.2268 C.ar      1 <0>        -0.0603 
       7 C6        -1.5924    1.0642    3.6199 C.ar      1 <0>        -0.1775 
       8 C7        -0.5659    0.5218    4.4021 C.ar      1 <0>         0.1359 
       9 O2        -0.5213    0.6217    5.7678 O.3       1 <0>        -0.2949 
      10 C8        -0.8563    1.8796    6.3597 C.3       1 <0>         0.0554 
      11 C9         0.1162    2.9493    5.8652 C.3       1 <0>        -0.1108 
      12 C10       -0.2417    4.2934    6.4975 C.3       1 <0>        -0.1085 
      13 C11       -0.1299    4.1876    7.9997 C.2       1 <0>         0.4668 
      14 O3         0.6409    4.8822    8.5927 O.2       1 <0>        -0.4984 
      15 O4        -0.9011    3.3079    8.6733 O.3       1 <0>        -0.3293 
      16 C12       -0.7600    3.2434   10.0949 C.3       1 <0>         0.0498 
      17 C13       -1.7062    2.2042   10.6470 C.2       1 <0>         0.5168 
      18 O5        -2.4694    2.4932   11.5673 O.2       1 <0>        -0.4913 
      19 N1        -1.7143    0.9755   10.1379 N.am      1 <0>        -0.6701 
      20 C14       -2.6003    0.0005   10.6542 C.ar      1 <0>         0.1579 
      21 C15       -3.4701    0.3301   11.7004 C.ar      1 <0>        -0.1362 
      22 C16       -4.3429   -0.6365   12.2144 C.ar      1 <0>        -0.0710 
      23 C17       -4.3513   -1.9281   11.6781 C.ar      1 <0>        -0.1038 
      24 C18       -3.4829   -2.2568   10.6304 C.ar      1 <0>        -0.0707 
      25 C19       -2.6075   -1.2923   10.1172 C.ar      1 <0>        -0.1148 
      26 Br1       -5.5362   -3.2391   12.3761 Br        1 <0>        -0.0469 
      27 C20       -0.5101    0.0961    0.1684 C.1       1 <0>         0.2541 
      28 N2        -0.4940   -0.0204   -0.9855 N.1       1 <0>        -0.4124 
      29 H1         3.0824    0.4810    4.0535 H         1 <0>         0.1051 
      30 H2         3.4716   -1.0244    4.9141 H         1 <0>         0.0578 
      31 H3         2.9386   -1.0819    3.2198 H         1 <0>         0.0579 
      32 H4         1.2787   -0.8187    1.8571 H         1 <0>         0.1456 
      33 H5        -2.3724    1.3467    1.6268 H         1 <0>         0.1399 
      34 H6        -2.4292    1.6041    4.0378 H         1 <0>         0.1478 
      35 H7        -1.8707    2.1548    6.0784 H         1 <0>         0.0709 
      36 H8        -0.7883    1.8012    7.4426 H         1 <0>         0.0709 
      37 H9         1.1310    2.6757    6.1464 H         1 <0>         0.0878 
      38 H10        0.0485    3.0293    4.7822 H         1 <0>         0.0877 
      39 H11        0.4423    5.0584    6.1365 H         1 <0>         0.1149 
      40 H12       -1.2613    4.5615    6.2284 H         1 <0>         0.1150 
      41 H13       -0.9952    4.2134   10.5276 H         1 <0>         0.1060 
      42 H14        0.2630    2.9717   10.3464 H         1 <0>         0.1063 
      43 H15       -1.0876    0.7382    9.3822 H         1 <0>         0.4168 
      44 H16       -3.4660    1.3309   12.1065 H         1 <0>         0.1372 
      45 H17       -5.0153   -0.3847   13.0210 H         1 <0>         0.1390 
      46 H18       -3.4904   -3.2554   10.2190 H         1 <0>         0.1383 
      47 H19       -1.9382   -1.5404    9.3067 H         1 <0>         0.1486 
@<TRIPOS>BOND
       1        1        2 1        
       2        1       29 1        
       3        1       30 1        
       4        1       31 1        
       5        2        3 1        
       6        3        8 ar       
       7        3        4 ar       
       8        4        5 ar       
       9        4       32 1        
      10        5        6 ar       
      11        5       27 1        
      12        6        7 ar       
      13        6       33 1        
      14        7        8 ar       
      15        7       34 1        
      16        8        9 1        
      17        9       10 1        
      18       10       11 1        
      19       10       35 1        
      20       10       36 1        
      21       11       12 1        
      22       11       37 1        
      23       11       38 1        
      24       12       13 1        
      25       12       39 1        
      26       12       40 1        
      27       13       14 2        
      28       13       15 1        
      29       15       16 1        
      30       16       17 1        
      31       16       41 1        
      32       16       42 1        
      33       17       18 2        
      34       17       19 am       
      35       19       20 1        
      36       19       43 1        
      37       20       25 ar       
      38       20       21 ar       
      39       21       22 ar       
      40       21       44 1        
      41       22       23 ar       
      42       22       45 1        
      43       23       24 ar       
      44       23       26 1        
      45       24       25 ar       
      46       24       46 1        
      47       25       47 1        
      48       27       28 3        

