#        1GCZ_R01_S0001_C0000_L00011_S0001_C0046_G0010_E0001.mol2
#        Tue Jun  6 14:12:49 2017
#        Descriptor:     24    18    11    10     6    14
#        Energy - RMSD - RMSD MassCentre:     -61.4258    999.9999    999.9999
#        Receptor:       1  Surface Point:     1  Conformer:     0
#        Ligand:        11  Surface Point:     1  Conformer:    46
#        BUDE Formal Charge: 0
#        ATOM Count: 47
#        Heavy ATOM Count: 28
@<TRIPOS>MOLECULE
ZINC61303593_1GCZ_R01_S0001_C0000_L00011_S0001_C0046_G0010_E0001
 47 48 0 0 0
SMALL
USER_CHARGES
@<TRIPOS>ATOM
       1 C1        -1.1855   -4.0624    7.3814 C.3       1 <0>         0.0220 
       2 O1        -0.7728   -2.7245    7.0904 O.3       1 <0>        -0.3006 
       3 C2        -1.5610   -1.6973    7.5377 C.ar      1 <0>         0.1008 
       4 C3        -2.1743   -1.6833    8.7961 C.ar      1 <0>        -0.1273 
       5 C4        -2.9691   -0.6018    9.1945 C.ar      1 <0>        -0.0284 
       6 C5        -3.1534    0.4759    8.3287 C.ar      1 <0>        -0.0603 
       7 C6        -2.5418    0.4656    7.0695 C.ar      1 <0>        -0.1775 
       8 C7        -1.7466   -0.6150    6.6695 C.ar      1 <0>         0.1359 
       9 O2        -1.1218   -0.6854    5.4524 O.3       1 <0>        -0.2949 
      10 C8        -0.4770    0.4922    4.9603 C.3       1 <0>         0.0554 
      11 C9         0.6240    0.9132    5.9327 C.3       1 <0>        -0.1108 
      12 C10        1.6577   -0.2063    6.0458 C.3       1 <0>        -0.1085 
      13 C11        2.2734   -0.4606    4.6905 C.2       1 <0>         0.4668 
      14 O3         1.9239    0.1810    3.7448 O.2       1 <0>        -0.4984 
      15 O4         3.2191   -1.4131    4.5473 O.3       1 <0>        -0.3293 
      16 C12        3.6049   -2.1550    5.7073 C.3       1 <0>         0.0498 
      17 C13        4.6660   -3.1611    5.3303 C.2       1 <0>         0.5168 
      18 O5         4.5298   -4.3442    5.6378 O.2       1 <0>        -0.4913 
      19 N1         5.7485   -2.7676    4.6653 N.am      1 <0>        -0.6701 
      20 C14        6.7437   -3.7091    4.3113 C.ar      1 <0>         0.1579 
      21 C15        6.5877   -5.0560    4.6598 C.ar      1 <0>        -0.1362 
      22 C16        7.5753   -5.9862    4.3139 C.ar      1 <0>        -0.0710 
      23 C17        8.7129   -5.5718    3.6140 C.ar      1 <0>        -0.1038 
      24 C18        8.8677   -4.2253    3.2637 C.ar      1 <0>        -0.0707 
      25 C19        7.8825   -3.2933    3.6114 C.ar      1 <0>        -0.1148 
      26 Br1       10.0524   -6.8350    3.1448 Br        1 <0>        -0.0469 
      27 C20       -3.5996   -0.5980   10.5003 C.1       1 <0>         0.2541 
      28 N2        -4.1042   -0.5944   11.5448 N.1       1 <0>        -0.4124 
      29 H1        -2.1578   -4.2476    6.9297 H         1 <0>         0.1051 
      30 H2        -0.4574   -4.7620    6.9763 H         1 <0>         0.0578 
      31 H3        -1.2546   -4.1935    8.4592 H         1 <0>         0.0579 
      32 H4        -2.0698   -2.4868    9.5101 H         1 <0>         0.1456 
      33 H5        -3.7660    1.3114    8.6335 H         1 <0>         0.1399 
      34 H6        -2.7219    1.3278    6.4445 H         1 <0>         0.1478 
      35 H7        -0.0397    0.2867    3.9855 H         1 <0>         0.0709 
      36 H8        -1.2060    1.2947    4.8695 H         1 <0>         0.0709 
      37 H9         1.1070    1.8163    5.5658 H         1 <0>         0.0878 
      38 H10        0.1900    1.1054    6.9117 H         1 <0>         0.0877 
      39 H11        2.4356    0.0871    6.7476 H         1 <0>         0.1149 
      40 H12        1.1732   -1.1140    6.3994 H         1 <0>         0.1150 
      41 H13        2.7389   -2.6759    6.1101 H         1 <0>         0.1060 
      42 H14        4.0014   -1.4749    6.4582 H         1 <0>         0.1063 
      43 H15        5.8603   -1.7961    4.4128 H         1 <0>         0.4168 
      44 H16        5.7040   -5.3733    5.1934 H         1 <0>         0.1372 
      45 H17        7.4571   -7.0259    4.5810 H         1 <0>         0.1390 
      46 H18        9.7478   -3.9076    2.7245 H         1 <0>         0.1383 
      47 H19        7.9959   -2.2541    3.3402 H         1 <0>         0.1486 
@<TRIPOS>BOND
       1        1        2 1        
       2        1       29 1        
       3        1       30 1        
       4        1       31 1        
       5        2        3 1        
       6        3        8 ar       
       7        3        4 ar       
       8        4        5 ar       
       9        4       32 1        
      10        5        6 ar       
      11        5       27 1        
      12        6        7 ar       
      13        6       33 1        
      14        7        8 ar       
      15        7       34 1        
      16        8        9 1        
      17        9       10 1        
      18       10       11 1        
      19       10       35 1        
      20       10       36 1        
      21       11       12 1        
      22       11       37 1        
      23       11       38 1        
      24       12       13 1        
      25       12       39 1        
      26       12       40 1        
      27       13       14 2        
      28       13       15 1        
      29       15       16 1        
      30       16       17 1        
      31       16       41 1        
      32       16       42 1        
      33       17       18 2        
      34       17       19 am       
      35       19       20 1        
      36       19       43 1        
      37       20       25 ar       
      38       20       21 ar       
      39       21       22 ar       
      40       21       44 1        
      41       22       23 ar       
      42       22       45 1        
      43       23       24 ar       
      44       23       26 1        
      45       24       25 ar       
      46       24       46 1        
      47       25       47 1        
      48       27       28 3        

