#        1GCZ_R01_S0001_C0000_L00003_S0001_C0016_G0010_E0001.mol2
#        Tue Jun  6 14:03:58 2017
#        Descriptor:      2    20    36     6     6    14
#        Energy - RMSD - RMSD MassCentre:     -55.6268    999.9999    999.9999
#        Receptor:       1  Surface Point:     1  Conformer:     0
#        Ligand:         3  Surface Point:     1  Conformer:    16
#        BUDE Formal Charge: 0
#        ATOM Count: 58
#        Heavy ATOM Count: 30
@<TRIPOS>MOLECULE
ZINC61580633_1GCZ_R01_S0001_C0000_L00003_S0001_C0016_G0010_E0001
 58 59 0 0 0
SMALL
USER_CHARGES
@<TRIPOS>ATOM
       1 C1        -0.9047   -0.1789   -3.5732 C.3       1 <0>        -0.1532 
       2 C2        -0.8865    1.3220   -3.2983 C.3       1 <0>        -0.1224 
       3 C3        -0.1242    1.5923   -2.0019 C.3       1 <0>        -0.1198 
       4 C4        -0.8254    0.8854   -0.8428 C.3       1 <0>         0.0610 
       5 O1        -0.1120    1.1384    0.3704 O.3       1 <0>        -0.3878 
       6 C5        -0.7241    0.4995    1.4937 C.3       1 <0>         0.0487 
       7 C6         0.0820    0.8067    2.7549 C.3       1 <0>         0.1244 
       8 N1        -0.5472    0.1500    3.9096 N.am      1 <0>        -0.7216 
       9 C7        -0.0132    0.2803    5.1208 C.2       1 <0>         0.5161 
      10 O2         1.0068    0.9499    5.2752 O.2       1 <0>        -0.5151 
      11 C8        -0.6596   -0.3943    6.3070 C.3       1 <0>         0.0490 
      12 O3        -0.4884   -1.8100    6.2009 O.3       1 <0>        -0.3194 
      13 C9        -1.0041   -2.5853    7.1784 C.2       1 <0>         0.5417 
      14 O4        -1.5949   -2.0742    8.1155 O.2       1 <0>        -0.5337 
      15 C10       -0.8528   -4.0559    7.1132 C.2       1 <0>        -0.2559 
      16 C11       -0.1683   -4.7784    6.0177 C.2       1 <0>        -0.0791 
      17 C12       -0.1831   -6.1017    6.1940 C.2       1 <0>        -0.2585 
      18 S1        -1.0096   -6.5828    7.6832 S.3       1 <0>         0.3028 
      19 C13       -1.3397   -4.8827    8.0485 C.2       1 <0>         0.0893 
      20 N2        -2.0205   -4.4235    9.1451 N.am      1 <0>        -0.6099 
      21 C14       -2.4859   -5.2824   10.0477 C.2       1 <0>         0.5551 
      22 O5        -2.3048   -6.4898    9.8979 O.2       1 <0>        -0.4939 
      23 C15       -3.2211   -4.7847   11.2318 C.ar      1 <0>        -0.1466 
      24 C16       -3.6962   -5.7238   12.1551 C.ar      1 <0>        -0.0772 
      25 C17       -4.4614   -5.3203   13.2557 C.ar      1 <0>        -0.1241 
      26 C18       -4.7748   -3.9697   13.4479 C.ar      1 <0>        -0.0446 
      27 C19       -4.2567   -3.0230   12.5560 C.ar      1 <0>        -0.1261 
      28 C20       -3.4674   -3.4279   11.4730 C.ar      1 <0>        -0.0460 
      29 C21       -5.6533   -3.5617   14.6064 C.3       1 <0>        -0.0928 
      30 C22       -7.1136   -3.5706   14.1640 C.3       1 <0>        -0.1485 
      31 H1        -1.4076   -0.6907   -2.7554 H         1 <0>         0.0567 
      32 H2         0.1168   -0.5440   -3.6566 H         1 <0>         0.0554 
      33 H3        -1.4359   -0.3702   -4.5032 H         1 <0>         0.0557 
      34 H4        -0.3948    1.8362   -4.1214 H         1 <0>         0.0632 
      35 H5        -1.9072    1.6859   -3.2006 H         1 <0>         0.0635 
      36 H6         0.8926    1.2164   -2.0932 H         1 <0>         0.0711 
      37 H7        -0.0999    2.6632   -1.8114 H         1 <0>         0.0704 
      38 H8        -1.8423    1.2612   -0.7499 H         1 <0>         0.0498 
      39 H9        -0.8497   -0.1858   -1.0320 H         1 <0>         0.0505 
      40 H10       -0.7473   -0.5761    1.3321 H         1 <0>         0.0584 
      41 H11       -1.7397    0.8708    1.6140 H         1 <0>         0.0702 
      42 H12        0.1053    1.8820    2.9183 H         1 <0>         0.0872 
      43 H13        1.0977    0.4351    2.6362 H         1 <0>         0.0805 
      44 H14       -1.3849   -0.4001    3.7841 H         1 <0>         0.4058 
      45 H15       -0.1934   -0.0411    7.2245 H         1 <0>         0.1008 
      46 H16       -1.7215   -0.1584    6.3248 H         1 <0>         0.0999 
      47 H17        0.2950   -4.2706    5.1848 H         1 <0>         0.1557 
      48 H18        0.2763   -6.7897    5.4999 H         1 <0>         0.1929 
      49 H19       -2.1692   -3.4322    9.2682 H         1 <0>         0.4317 
      50 H20       -3.4751   -6.7718   12.0166 H         1 <0>         0.1287 
      51 H21       -4.8172   -6.0531   13.9647 H         1 <0>         0.1326 
      52 H22       -4.4711   -1.9769   12.7176 H         1 <0>         0.1342 
      53 H23       -3.0469   -2.6495   10.8535 H         1 <0>         0.1410 
      54 H24       -5.3789   -2.5611   14.9339 H         1 <0>         0.0777 
      55 H25       -5.5181   -4.2624   15.4276 H         1 <0>         0.0771 
      56 H26       -7.3903   -4.5744   13.8486 H         1 <0>         0.0623 
      57 H27       -7.2446   -2.8799   13.3335 H         1 <0>         0.0572 
      58 H28       -7.7454   -3.2637   14.9949 H         1 <0>         0.0578 
@<TRIPOS>BOND
       1        1        2 1        
       2        1       31 1        
       3        1       32 1        
       4        1       33 1        
       5        2        3 1        
       6        2       34 1        
       7        2       35 1        
       8        3        4 1        
       9        3       36 1        
      10        3       37 1        
      11        4        5 1        
      12        4       38 1        
      13        4       39 1        
      14        5        6 1        
      15        6        7 1        
      16        6       40 1        
      17        6       41 1        
      18        7        8 1        
      19        7       42 1        
      20        7       43 1        
      21        8        9 am       
      22        8       44 1        
      23        9       10 2        
      24        9       11 1        
      25       11       12 1        
      26       11       45 1        
      27       11       46 1        
      28       12       13 1        
      29       13       14 2        
      30       13       15 1        
      31       15       19 2        
      32       15       16 1        
      33       16       17 2        
      34       16       47 1        
      35       17       18 1        
      36       17       48 1        
      37       18       19 1        
      38       19       20 1        
      39       20       21 am       
      40       20       49 1        
      41       21       22 2        
      42       21       23 1        
      43       23       28 ar       
      44       23       24 ar       
      45       24       25 ar       
      46       24       50 1        
      47       25       26 ar       
      48       25       51 1        
      49       26       27 ar       
      50       26       29 1        
      51       27       28 ar       
      52       27       52 1        
      53       28       53 1        
      54       29       30 1        
      55       29       54 1        
      56       29       55 1        
      57       30       56 1        
      58       30       57 1        
      59       30       58 1        

