#        1GCZ_R01_S0001_C0000_L00011_S0001_C0047_G0010_E0001.mol2
#        Tue Jun  6 09:58:32 2017
#        Descriptor:     10     5     3    10     7    15
#        Energy - RMSD - RMSD MassCentre:     -59.3253    999.9999    999.9999
#        Receptor:       1  Surface Point:     1  Conformer:     0
#        Ligand:        11  Surface Point:     1  Conformer:    47
#        BUDE Formal Charge: 0
#        ATOM Count: 47
#        Heavy ATOM Count: 28
@<TRIPOS>MOLECULE
ZINC61303593_1GCZ_R01_S0001_C0000_L00011_S0001_C0047_G0010_E0001
 47 48 0 0 0
SMALL
USER_CHARGES
@<TRIPOS>ATOM
       1 C1         4.4080   -4.4710    5.0388 C.3       1 <0>         0.0220 
       2 O1         3.3886   -3.8358    5.8146 O.3       1 <0>        -0.3006 
       3 C2         3.2078   -4.2565    7.1057 C.ar      1 <0>         0.1008 
       4 C3         4.2612   -4.5701    7.9727 C.ar      1 <0>        -0.1273 
       5 C4         4.0097   -4.9950    9.2827 C.ar      1 <0>        -0.0284 
       6 C5         2.6940   -5.1079    9.7316 C.ar      1 <0>        -0.0603 
       7 C6         1.6378   -4.7953    8.8677 C.ar      1 <0>        -0.1775 
       8 C7         1.8875   -4.3703    7.5574 C.ar      1 <0>         0.1359 
       9 O2         0.8995   -4.0497    6.6641 O.3       1 <0>        -0.2949 
      10 C8        -0.2046   -3.2728    7.1354 C.3       1 <0>         0.0554 
      11 C9         0.3030   -1.9250    7.6456 C.3       1 <0>        -0.1108 
      12 C10        0.9851   -1.1733    6.5034 C.3       1 <0>        -0.1085 
      13 C11       -0.0113   -0.9327    5.3945 C.2       1 <0>         0.4668 
      14 O3        -1.1367   -1.3188    5.5071 O.2       1 <0>        -0.4984 
      15 O4         0.3693   -0.2809    4.2753 O.3       1 <0>        -0.3293 
      16 C12        1.7260    0.1622    4.1858 C.3       1 <0>         0.0498 
      17 C13        1.9961    1.1756    5.2722 C.2       1 <0>         0.5168 
      18 O5         2.9628    1.0344    6.0195 O.2       1 <0>        -0.4913 
      19 N1         1.1883    2.2216    5.4210 N.am      1 <0>        -0.6701 
      20 C14        1.4401    3.1721    6.4385 C.ar      1 <0>         0.1579 
      21 C15        2.5414    3.0122    7.2879 C.ar      1 <0>        -0.1362 
      22 C16        2.7870    3.9502    8.2979 C.ar      1 <0>        -0.0710 
      23 C17        1.9375    5.0502    8.4533 C.ar      1 <0>        -0.1038 
      24 C18        0.8375    5.2111    7.6024 C.ar      1 <0>        -0.0707 
      25 C19        0.5888    4.2725    6.5938 C.ar      1 <0>        -0.1148 
      26 Br1        2.2718    6.3226    9.8241 Br        1 <0>        -0.0469 
      27 C20        5.1087   -5.3171   10.1720 C.1       1 <0>         0.2541 
      28 N2         5.9875   -5.5750   10.8839 N.1       1 <0>        -0.4124 
      29 H1         4.1878   -5.5330    4.9517 H         1 <0>         0.1051 
      30 H2         4.4399   -4.0240    4.0474 H         1 <0>         0.0578 
      31 H3         5.3707   -4.3386    5.5281 H         1 <0>         0.0579 
      32 H4         5.2998   -4.5026    7.6844 H         1 <0>         0.1456 
      33 H5         2.4972   -5.4356   10.7417 H         1 <0>         0.1399 
      34 H6         0.6424   -4.9024    9.2727 H         1 <0>         0.1478 
      35 H7        -0.9082   -3.1103    6.3217 H         1 <0>         0.0709 
      36 H8        -0.7020   -3.8024    7.9453 H         1 <0>         0.0709 
      37 H9        -0.5346   -1.3378    8.0160 H         1 <0>         0.0878 
      38 H10        1.0174   -2.0865    8.4500 H         1 <0>         0.0877 
      39 H11        1.3581   -0.2187    6.8683 H         1 <0>         0.1149 
      40 H12        1.8143   -1.7657    6.1227 H         1 <0>         0.1150 
      41 H13        1.8952    0.6201    3.2135 H         1 <0>         0.1060 
      42 H14        2.3945   -0.6872    4.3087 H         1 <0>         0.1063 
      43 H15        0.3946    2.3376    4.8073 H         1 <0>         0.4168 
      44 H16        3.1995    2.1655    7.1595 H         1 <0>         0.1372 
      45 H17        3.6362    3.8294    8.9540 H         1 <0>         0.1390 
      46 H18        0.1822    6.0607    7.7255 H         1 <0>         0.1383 
      47 H19       -0.2565    4.3944    5.9328 H         1 <0>         0.1486 
@<TRIPOS>BOND
       1        1        2 1        
       2        1       29 1        
       3        1       30 1        
       4        1       31 1        
       5        2        3 1        
       6        3        8 ar       
       7        3        4 ar       
       8        4        5 ar       
       9        4       32 1        
      10        5        6 ar       
      11        5       27 1        
      12        6        7 ar       
      13        6       33 1        
      14        7        8 ar       
      15        7       34 1        
      16        8        9 1        
      17        9       10 1        
      18       10       11 1        
      19       10       35 1        
      20       10       36 1        
      21       11       12 1        
      22       11       37 1        
      23       11       38 1        
      24       12       13 1        
      25       12       39 1        
      26       12       40 1        
      27       13       14 2        
      28       13       15 1        
      29       15       16 1        
      30       16       17 1        
      31       16       41 1        
      32       16       42 1        
      33       17       18 2        
      34       17       19 am       
      35       19       20 1        
      36       19       43 1        
      37       20       25 ar       
      38       20       21 ar       
      39       21       22 ar       
      40       21       44 1        
      41       22       23 ar       
      42       22       45 1        
      43       23       24 ar       
      44       23       26 1        
      45       24       25 ar       
      46       24       46 1        
      47       25       47 1        
      48       27       28 3        

