#        1GCZ_R01_S0001_C0000_L00011_S0001_C0047_G0010_E0001.mol2
#        Tue Jun  6 14:12:51 2017
#        Descriptor:     16    24    12    12     9    14
#        Energy - RMSD - RMSD MassCentre:     -57.7015    999.9999    999.9999
#        Receptor:       1  Surface Point:     1  Conformer:     0
#        Ligand:        11  Surface Point:     1  Conformer:    47
#        BUDE Formal Charge: 0
#        ATOM Count: 47
#        Heavy ATOM Count: 28
@<TRIPOS>MOLECULE
ZINC61303593_1GCZ_R01_S0001_C0000_L00011_S0001_C0047_G0010_E0001
 47 48 0 0 0
SMALL
USER_CHARGES
@<TRIPOS>ATOM
       1 C1         6.2668   -1.3640    9.3115 C.3       1 <0>         0.0220 
       2 O1         5.9653   -0.2878    8.4196 O.3       1 <0>        -0.3006 
       3 C2         6.9676    0.1744    7.6082 C.ar      1 <0>         0.1008 
       4 C3         7.8886   -0.6598    6.9635 C.ar      1 <0>        -0.1273 
       5 C4         8.8912   -0.1246    6.1459 C.ar      1 <0>        -0.0284 
       6 C5         8.9751    1.2564    5.9701 C.ar      1 <0>        -0.0603 
       7 C6         8.0560    2.0940    6.6131 C.ar      1 <0>        -0.1775 
       8 C7         7.0529    1.5605    7.4311 C.ar      1 <0>         0.1359 
       9 O2         6.1244    2.3251    8.0870 O.3       1 <0>        -0.2949 
      10 C8         5.5274    3.4124    7.3756 C.3       1 <0>         0.0554 
      11 C9         4.7858    2.8738    6.1530 C.3       1 <0>        -0.1108 
      12 C10        3.6852    1.9160    6.6071 C.3       1 <0>        -0.1085 
      13 C11        2.7059    2.6565    7.4862 C.2       1 <0>         0.4668 
      14 O3         2.8712    3.8166    7.7209 O.2       1 <0>        -0.4984 
      15 O4         1.6429    2.0077    8.0072 O.3       1 <0>        -0.3293 
      16 C12        1.4868    0.6202    7.6985 C.3       1 <0>         0.0498 
      17 C13        1.2837    0.4561    6.2112 C.2       1 <0>         0.5168 
      18 O5         1.9824   -0.3334    5.5777 O.2       1 <0>        -0.4913 
      19 N1         0.3487    1.1658    5.5859 N.am      1 <0>        -0.6701 
      20 C14        0.1572    1.0132    4.1923 C.ar      1 <0>         0.1579 
      21 C15        0.9513    0.1133    3.4716 C.ar      1 <0>        -0.1362 
      22 C16        0.7649   -0.0334    2.0918 C.ar      1 <0>        -0.0710 
      23 C17       -0.2190    0.7127    1.4351 C.ar      1 <0>        -0.1038 
      24 C18       -1.0144    1.6110    2.1563 C.ar      1 <0>        -0.0707 
      25 C19       -0.8274    1.7610    3.5357 C.ar      1 <0>        -0.1148 
      26 Br1       -0.4713    0.5128   -0.4374 Br        1 <0>        -0.0469 
      27 C20        9.8398   -0.9982    5.4830 C.1       1 <0>         0.2541 
      28 N2        10.5990   -1.6966    4.9525 N.1       1 <0>        -0.4124 
      29 H1         7.0534   -1.0562    9.9974 H         1 <0>         0.1051 
      30 H2         5.3748   -1.6271    9.8761 H         1 <0>         0.0578 
      31 H3         6.6014   -2.2262    8.7384 H         1 <0>         0.0579 
      32 H4         7.8755   -1.7354    7.0598 H         1 <0>         0.1456 
      33 H5         9.7476    1.6719    5.3400 H         1 <0>         0.1399 
      34 H6         8.1723    3.1533    6.4384 H         1 <0>         0.1478 
      35 H7         4.8255    3.9302    8.0256 H         1 <0>         0.0709 
      36 H8         6.3023    4.1045    7.0529 H         1 <0>         0.0709 
      37 H9         4.3416    3.7013    5.6038 H         1 <0>         0.0878 
      38 H10        5.4840    2.3435    5.5088 H         1 <0>         0.0877 
      39 H11        3.1646    1.5221    5.7369 H         1 <0>         0.1149 
      40 H12        4.1267    1.0953    7.1684 H         1 <0>         0.1150 
      41 H13        0.6220    0.2254    8.2276 H         1 <0>         0.1060 
      42 H14        2.3786    0.0774    8.0042 H         1 <0>         0.1063 
      43 H15       -0.2250    1.8141    6.1061 H         1 <0>         0.4168 
      44 H16        1.7047   -0.4667    3.9839 H         1 <0>         0.1372 
      45 H17        1.3757   -0.7274    1.5337 H         1 <0>         0.1390 
      46 H18       -1.7726    2.1870    1.6465 H         1 <0>         0.1383 
      47 H19       -1.4410    2.4502    4.0967 H         1 <0>         0.1486 
@<TRIPOS>BOND
       1        1        2 1        
       2        1       29 1        
       3        1       30 1        
       4        1       31 1        
       5        2        3 1        
       6        3        8 ar       
       7        3        4 ar       
       8        4        5 ar       
       9        4       32 1        
      10        5        6 ar       
      11        5       27 1        
      12        6        7 ar       
      13        6       33 1        
      14        7        8 ar       
      15        7       34 1        
      16        8        9 1        
      17        9       10 1        
      18       10       11 1        
      19       10       35 1        
      20       10       36 1        
      21       11       12 1        
      22       11       37 1        
      23       11       38 1        
      24       12       13 1        
      25       12       39 1        
      26       12       40 1        
      27       13       14 2        
      28       13       15 1        
      29       15       16 1        
      30       16       17 1        
      31       16       41 1        
      32       16       42 1        
      33       17       18 2        
      34       17       19 am       
      35       19       20 1        
      36       19       43 1        
      37       20       25 ar       
      38       20       21 ar       
      39       21       22 ar       
      40       21       44 1        
      41       22       23 ar       
      42       22       45 1        
      43       23       24 ar       
      44       23       26 1        
      45       24       25 ar       
      46       24       46 1        
      47       25       47 1        
      48       27       28 3        

