#        1GCZ_R01_S0001_C0000_L00011_S0001_C0048_G0010_E0001.mol2
#        Tue Jun  6 09:58:33 2017
#        Descriptor:     36    30    28     7     9    14
#        Energy - RMSD - RMSD MassCentre:     -63.0389    999.9999    999.9999
#        Receptor:       1  Surface Point:     1  Conformer:     0
#        Ligand:        11  Surface Point:     1  Conformer:    48
#        BUDE Formal Charge: 0
#        ATOM Count: 47
#        Heavy ATOM Count: 28
@<TRIPOS>MOLECULE
ZINC61303593_1GCZ_R01_S0001_C0000_L00011_S0001_C0048_G0010_E0001
 47 48 0 0 0
SMALL
USER_CHARGES
@<TRIPOS>ATOM
       1 C1        -0.9838    1.3731   13.4279 C.3       1 <0>         0.0220 
       2 O1        -0.9128    1.1238   12.0217 O.3       1 <0>        -0.3006 
       3 C2        -2.0816    1.1354   11.3071 C.ar      1 <0>         0.1008 
       4 C3        -3.2791    0.5793   11.7722 C.ar      1 <0>        -0.1273 
       5 C4        -4.4410    0.6238   10.9924 C.ar      1 <0>        -0.0284 
       6 C5        -4.4071    1.2293    9.7365 C.ar      1 <0>        -0.0603 
       7 C6        -3.2114    1.7866    9.2678 C.ar      1 <0>        -0.1775 
       8 C7        -2.0487    1.7429   10.0462 C.ar      1 <0>         0.1359 
       9 O2        -0.8490    2.2691    9.6454 O.3       1 <0>        -0.2949 
      10 C8        -0.4370    2.0469    8.2942 C.3       1 <0>         0.0554 
      11 C9        -0.2995    0.5456    8.0450 C.3       1 <0>        -0.1108 
      12 C10        0.1406    0.3080    6.6012 C.3       1 <0>        -0.1085 
      13 C11       -0.9001    0.8666    5.6602 C.2       1 <0>         0.4668 
      14 O3        -1.8800    1.3935    6.0966 O.2       1 <0>        -0.4984 
      15 O4        -0.7234    0.7707    4.3253 O.3       1 <0>        -0.3293 
      16 C12        0.4646    0.1321    3.8502 C.3       1 <0>         0.0498 
      17 C13        0.4648    0.1309    2.3402 C.2       1 <0>         0.5168 
      18 O5         0.6497   -0.9181    1.7252 O.2       1 <0>        -0.4913 
      19 N1         0.2648    1.2650    1.6748 N.am      1 <0>        -0.6701 
      20 C14        0.2647    1.2656    0.2598 C.ar      1 <0>         0.1579 
      21 C15        0.4735    0.0712   -0.4400 C.ar      1 <0>        -0.1362 
      22 C16        0.4785    0.0733   -1.8401 C.ar      1 <0>        -0.0710 
      23 C17        0.2674    1.2661   -2.5391 C.ar      1 <0>        -0.1038 
      24 C18        0.0565    2.4599   -1.8391 C.ar      1 <0>        -0.0707 
      25 C19        0.0541    2.4601   -0.4390 C.ar      1 <0>        -0.1148 
      26 Br1        0.2742    1.2679   -4.4391 Br        1 <0>        -0.0469 
      27 C20       -5.6758    0.0445   11.4844 C.1       1 <0>         0.2541 
      28 N2        -6.6640   -0.4187   11.8773 N.1       1 <0>        -0.4124 
      29 H1        -1.6000    0.6107   13.9000 H         1 <0>         0.1051 
      30 H2         0.0177    1.3445   13.8518 H         1 <0>         0.0578 
      31 H3        -1.4232    2.3534   13.6000 H         1 <0>         0.0579 
      32 H4        -3.3688    0.0975   12.7346 H         1 <0>         0.1456 
      33 H5        -5.3020    1.2650    9.1328 H         1 <0>         0.1399 
      34 H6        -3.2483    2.2408    8.2887 H         1 <0>         0.1478 
      35 H7        -1.1800    2.4599    7.6152 H         1 <0>         0.0709 
      36 H8         0.5216    2.5317    8.1221 H         1 <0>         0.0709 
      37 H9         0.4438    0.1314    8.7229 H         1 <0>         0.0878 
      38 H10       -1.2578    0.0596    8.2159 H         1 <0>         0.0877 
      39 H11        1.0921    0.8053    6.4250 H         1 <0>         0.1149 
      40 H12        0.2510   -0.7600    6.4260 H         1 <0>         0.1150 
      41 H13        0.4959   -0.8931    4.2130 H         1 <0>         0.1060 
      42 H14        1.3369    0.6723    4.2119 H         1 <0>         0.1063 
      43 H15        0.1129    2.1264    2.1798 H         1 <0>         0.4168 
      44 H16        0.6282   -0.8491    0.1035 H         1 <0>         0.1372 
      45 H17        0.6387   -0.8467   -2.3823 H         1 <0>         0.1390 
      46 H18       -0.1048    3.3800   -2.3813 H         1 <0>         0.1383 
      47 H19       -0.1117    3.3781    0.1052 H         1 <0>         0.1486 
@<TRIPOS>BOND
       1        1        2 1        
       2        1       29 1        
       3        1       30 1        
       4        1       31 1        
       5        2        3 1        
       6        3        8 ar       
       7        3        4 ar       
       8        4        5 ar       
       9        4       32 1        
      10        5        6 ar       
      11        5       27 1        
      12        6        7 ar       
      13        6       33 1        
      14        7        8 ar       
      15        7       34 1        
      16        8        9 1        
      17        9       10 1        
      18       10       11 1        
      19       10       35 1        
      20       10       36 1        
      21       11       12 1        
      22       11       37 1        
      23       11       38 1        
      24       12       13 1        
      25       12       39 1        
      26       12       40 1        
      27       13       14 2        
      28       13       15 1        
      29       15       16 1        
      30       16       17 1        
      31       16       41 1        
      32       16       42 1        
      33       17       18 2        
      34       17       19 am       
      35       19       20 1        
      36       19       43 1        
      37       20       25 ar       
      38       20       21 ar       
      39       21       22 ar       
      40       21       44 1        
      41       22       23 ar       
      42       22       45 1        
      43       23       24 ar       
      44       23       26 1        
      45       24       25 ar       
      46       24       46 1        
      47       25       47 1        
      48       27       28 3        

