#        1GCZ_R01_S0001_C0000_L00011_S0001_C0048_G0010_E0001.mol2
#        Tue Jun  6 14:12:53 2017
#        Descriptor:     31    22    19    14     9    14
#        Energy - RMSD - RMSD MassCentre:     -58.4688    999.9999    999.9999
#        Receptor:       1  Surface Point:     1  Conformer:     0
#        Ligand:        11  Surface Point:     1  Conformer:    48
#        BUDE Formal Charge: 0
#        ATOM Count: 47
#        Heavy ATOM Count: 28
@<TRIPOS>MOLECULE
ZINC61303593_1GCZ_R01_S0001_C0000_L00011_S0001_C0048_G0010_E0001
 47 48 0 0 0
SMALL
USER_CHARGES
@<TRIPOS>ATOM
       1 C1         0.1270   -2.7316    8.6262 C.3       1 <0>         0.0220 
       2 O1         1.2903   -2.1707    8.0124 O.3       1 <0>        -0.3006 
       3 C2         1.1396   -1.0249    7.2767 C.ar      1 <0>         0.1008 
       4 C3         0.0585   -0.7925    6.4182 C.ar      1 <0>        -0.1273 
       5 C4        -0.0376    0.4011    5.6929 C.ar      1 <0>        -0.0284 
       6 C5         0.9549    1.3719    5.8258 C.ar      1 <0>        -0.0603 
       7 C6         2.0377    1.1432    6.6832 C.ar      1 <0>        -0.1775 
       8 C7         2.1353   -0.0497    7.4092 C.ar      1 <0>         0.1359 
       9 O2         3.1680   -0.3338    8.2634 O.3       1 <0>        -0.2949 
      10 C8         4.4955   -0.0094    7.8422 C.3       1 <0>         0.0554 
      11 C9         4.8280   -0.7842    6.5677 C.3       1 <0>        -0.1108 
      12 C10        6.2464   -0.4376    6.1176 C.3       1 <0>        -0.1085 
      13 C11        6.3342    1.0418    5.8274 C.2       1 <0>         0.4668 
      14 O3         5.3718    1.7367    5.9656 O.2       1 <0>        -0.4984 
      15 O4         7.5005    1.5796    5.4118 O.3       1 <0>        -0.3293 
      16 C12        8.6247    0.7088    5.2611 C.3       1 <0>         0.0498 
      17 C13        9.8182    1.5057    4.7914 C.2       1 <0>         0.5168 
      18 O5        10.4534    1.1393    3.8039 O.2       1 <0>        -0.4913 
      19 N1        10.1828    2.6046    5.4460 N.am      1 <0>        -0.6701 
      20 C14       11.3010    3.3524    5.0071 C.ar      1 <0>         0.1579 
      21 C15       12.0227    2.9363    3.8821 C.ar      1 <0>        -0.1362 
      22 C16       13.1321    3.6738    3.4514 C.ar      1 <0>        -0.0710 
      23 C17       13.5145    4.8295    4.1398 C.ar      1 <0>        -0.1038 
      24 C18       12.7913    5.2467    5.2636 C.ar      1 <0>        -0.0707 
      25 C19       11.6834    4.5088    5.6973 C.ar      1 <0>        -0.1148 
      26 Br1       15.0201    5.8298    3.5545 Br        1 <0>        -0.0469 
      27 C20       -1.1620    0.6311    4.8067 C.1       1 <0>         0.2541 
      28 N2        -2.0612    0.8156    4.0976 N.1       1 <0>        -0.4124 
      29 H1        -0.5969   -2.9940    7.8575 H         1 <0>         0.1051 
      30 H2         0.4058   -3.6239    9.1826 H         1 <0>         0.0578 
      31 H3        -0.3115   -2.0027    9.3046 H         1 <0>         0.0579 
      32 H4        -0.7404   -1.5046    6.2729 H         1 <0>         0.1456 
      33 H5         0.8832    2.2935    5.2673 H         1 <0>         0.1399 
      34 H6         2.7732    1.9316    6.7435 H         1 <0>         0.1478 
      35 H7         4.5633    1.0583    7.6447 H         1 <0>         0.0709 
      36 H8         5.2013   -0.2798    8.6247 H         1 <0>         0.0709 
      37 H9         4.7613   -1.8522    6.7640 H         1 <0>         0.0878 
      38 H10        4.1233   -0.5141    5.7841 H         1 <0>         0.0877 
      39 H11        6.9508   -0.6943    6.9060 H         1 <0>         0.1149 
      40 H12        6.4891   -0.9981    5.2173 H         1 <0>         0.1150 
      41 H13        8.3923   -0.0610    4.5283 H         1 <0>         0.1060 
      42 H14        8.8540    0.2429    6.2172 H         1 <0>         0.1063 
      43 H15        9.6613    2.9054    6.2569 H         1 <0>         0.4168 
      44 H16       11.7194    2.0476    3.3486 H         1 <0>         0.1372 
      45 H17       13.6902    3.3553    2.5835 H         1 <0>         0.1390 
      46 H18       13.0895    6.1388    5.7943 H         1 <0>         0.1383 
      47 H19       11.1204    4.8287    6.5616 H         1 <0>         0.1486 
@<TRIPOS>BOND
       1        1        2 1        
       2        1       29 1        
       3        1       30 1        
       4        1       31 1        
       5        2        3 1        
       6        3        8 ar       
       7        3        4 ar       
       8        4        5 ar       
       9        4       32 1        
      10        5        6 ar       
      11        5       27 1        
      12        6        7 ar       
      13        6       33 1        
      14        7        8 ar       
      15        7       34 1        
      16        8        9 1        
      17        9       10 1        
      18       10       11 1        
      19       10       35 1        
      20       10       36 1        
      21       11       12 1        
      22       11       37 1        
      23       11       38 1        
      24       12       13 1        
      25       12       39 1        
      26       12       40 1        
      27       13       14 2        
      28       13       15 1        
      29       15       16 1        
      30       16       17 1        
      31       16       41 1        
      32       16       42 1        
      33       17       18 2        
      34       17       19 am       
      35       19       20 1        
      36       19       43 1        
      37       20       25 ar       
      38       20       21 ar       
      39       21       22 ar       
      40       21       44 1        
      41       22       23 ar       
      42       22       45 1        
      43       23       24 ar       
      44       23       26 1        
      45       24       25 ar       
      46       24       46 1        
      47       25       47 1        
      48       27       28 3        

