#        1GCZ_R01_S0001_C0000_L00011_S0001_C0049_G0010_E0001.mol2
#        Tue Jun  6 09:58:33 2017
#        Descriptor:     15    30    32     8     5    14
#        Energy - RMSD - RMSD MassCentre:     -64.4206    999.9999    999.9999
#        Receptor:       1  Surface Point:     1  Conformer:     0
#        Ligand:        11  Surface Point:     1  Conformer:    49
#        BUDE Formal Charge: 0
#        ATOM Count: 47
#        Heavy ATOM Count: 28
@<TRIPOS>MOLECULE
ZINC61303593_1GCZ_R01_S0001_C0000_L00011_S0001_C0049_G0010_E0001
 47 48 0 0 0
SMALL
USER_CHARGES
@<TRIPOS>ATOM
       1 C1         1.9260    1.4061    4.8849 C.3       1 <0>         0.0220 
       2 O1         0.5461    1.5137    5.2441 O.3       1 <0>        -0.3006 
       3 C2        -0.3849    1.0037    4.3783 C.ar      1 <0>         0.1008 
       4 C3        -0.3017    1.1340    2.9869 C.ar      1 <0>        -0.1273 
       5 C4        -1.2874    0.5892    2.1553 C.ar      1 <0>        -0.0284 
       6 C5        -2.3665   -0.0922    2.7180 C.ar      1 <0>        -0.0603 
       7 C6        -2.4532   -0.2246    4.1089 C.ar      1 <0>        -0.1775 
       8 C7        -1.4684    0.3196    4.9419 C.ar      1 <0>         0.1359 
       9 O2        -1.4954    0.2245    6.3083 O.3       1 <0>        -0.2949 
      10 C8        -1.8622   -1.0311    6.8863 C.3       1 <0>         0.0554 
      11 C9        -0.8661   -2.1033    6.4469 C.3       1 <0>        -0.1108 
      12 C10       -1.2580   -3.4449    7.0644 C.3       1 <0>        -0.1085 
      13 C11       -1.2247   -3.3339    8.5701 C.2       1 <0>         0.4668 
      14 O3        -0.9220   -2.3000    9.0873 O.2       1 <0>        -0.4984 
      15 O4        -1.5369   -4.4034    9.3323 O.3       1 <0>        -0.3293 
      16 C12       -1.8928   -5.6191    8.6687 C.3       1 <0>         0.0498 
      17 C13       -0.7162   -6.1142    7.8622 C.2       1 <0>         0.5168 
      18 O5        -0.8592   -6.3957    6.6734 O.2       1 <0>        -0.4913 
      19 N1         0.4756   -6.2462    8.4376 N.am      1 <0>        -0.6701 
      20 C14        1.5791   -6.7101    7.6832 C.ar      1 <0>         0.1579 
      21 C15        1.4166   -7.0286    6.3298 C.ar      1 <0>        -0.1362 
      22 C16        2.5078   -7.4926    5.5851 C.ar      1 <0>        -0.0710 
      23 C17        3.7608   -7.6304    6.1908 C.ar      1 <0>        -0.1038 
      24 C18        3.9235   -7.3097    7.5437 C.ar      1 <0>        -0.0707 
      25 C19        2.8328   -6.8483    8.2905 C.ar      1 <0>        -0.1148 
      26 Br1        5.2409   -8.2598    5.1794 Br        1 <0>        -0.0469 
      27 C20       -1.1909    0.7303    0.7155 C.1       1 <0>         0.2541 
      28 N2        -1.1144    0.8428   -0.4365 N.1       1 <0>        -0.4124 
      29 H1         2.0999    1.9388    3.9523 H         1 <0>         0.1051 
      30 H2         2.5398    1.8404    5.6713 H         1 <0>         0.0578 
      31 H3         2.1864    0.3574    4.7583 H         1 <0>         0.0579 
      32 H4         0.5081    1.6496    2.4921 H         1 <0>         0.1456 
      33 H5        -3.1282   -0.5135    2.0788 H         1 <0>         0.1399 
      34 H6        -3.3113   -0.7623    4.4844 H         1 <0>         0.1478 
      35 H7        -1.8507   -0.9489    7.9710 H         1 <0>         0.0709 
      36 H8        -2.8607   -1.3065    6.5533 H         1 <0>         0.0709 
      37 H9        -0.8772   -2.1870    5.3623 H         1 <0>         0.0878 
      38 H10        0.1327   -1.8295    6.7799 H         1 <0>         0.0877 
      39 H11       -2.2623   -3.7131    6.7434 H         1 <0>         0.1149 
      40 H12       -0.5568   -4.2117    6.7423 H         1 <0>         0.1150 
      41 H13       -2.7357   -5.4375    8.0053 H         1 <0>         0.1060 
      42 H14       -2.1668   -6.3694    9.4073 H         1 <0>         0.1063 
      43 H15        0.5930   -6.0151    9.4138 H         1 <0>         0.4168 
      44 H16        0.4491   -6.9133    5.8638 H         1 <0>         0.1372 
      45 H17        2.3852   -7.7384    4.5408 H         1 <0>         0.1390 
      46 H18        4.8919   -7.4183    8.0094 H         1 <0>         0.1383 
      47 H19        2.9545   -6.5964    9.3336 H         1 <0>         0.1486 
@<TRIPOS>BOND
       1        1        2 1        
       2        1       29 1        
       3        1       30 1        
       4        1       31 1        
       5        2        3 1        
       6        3        8 ar       
       7        3        4 ar       
       8        4        5 ar       
       9        4       32 1        
      10        5        6 ar       
      11        5       27 1        
      12        6        7 ar       
      13        6       33 1        
      14        7        8 ar       
      15        7       34 1        
      16        8        9 1        
      17        9       10 1        
      18       10       11 1        
      19       10       35 1        
      20       10       36 1        
      21       11       12 1        
      22       11       37 1        
      23       11       38 1        
      24       12       13 1        
      25       12       39 1        
      26       12       40 1        
      27       13       14 2        
      28       13       15 1        
      29       15       16 1        
      30       16       17 1        
      31       16       41 1        
      32       16       42 1        
      33       17       18 2        
      34       17       19 am       
      35       19       20 1        
      36       19       43 1        
      37       20       25 ar       
      38       20       21 ar       
      39       21       22 ar       
      40       21       44 1        
      41       22       23 ar       
      42       22       45 1        
      43       23       24 ar       
      44       23       26 1        
      45       24       25 ar       
      46       24       46 1        
      47       25       47 1        
      48       27       28 3        

