#        1GCZ_R01_S0001_C0000_L00011_S0001_C0049_G0010_E0001.mol2
#        Tue Jun  6 14:12:55 2017
#        Descriptor:     19    14    15     9     6    15
#        Energy - RMSD - RMSD MassCentre:     -59.4595    999.9999    999.9999
#        Receptor:       1  Surface Point:     1  Conformer:     0
#        Ligand:        11  Surface Point:     1  Conformer:    49
#        BUDE Formal Charge: 0
#        ATOM Count: 47
#        Heavy ATOM Count: 28
@<TRIPOS>MOLECULE
ZINC61303593_1GCZ_R01_S0001_C0000_L00011_S0001_C0049_G0010_E0001
 47 48 0 0 0
SMALL
USER_CHARGES
@<TRIPOS>ATOM
       1 C1        -0.2213   -6.6615    5.9298 C.3       1 <0>         0.0220 
       2 O1        -1.3761   -5.8738    6.2310 O.3       1 <0>        -0.3006 
       3 C2        -1.5548   -5.4646    7.5261 C.ar      1 <0>         0.1008 
       4 C3        -1.2992   -6.2771    8.6371 C.ar      1 <0>        -0.1273 
       5 C4        -1.5024   -5.7990    9.9371 C.ar      1 <0>        -0.0284 
       6 C5        -1.9652   -4.4975   10.1300 C.ar      1 <0>        -0.0603 
       7 C6        -2.2220   -3.6820    9.0215 C.ar      1 <0>        -0.1775 
       8 C7        -2.0194   -4.1585    7.7208 C.ar      1 <0>         0.1359 
       9 O2        -2.2516   -3.4116    6.5961 O.3       1 <0>        -0.2949 
      10 C8        -1.8222   -2.0475    6.5963 C.3       1 <0>         0.0554 
      11 C9        -0.3072   -1.9916    6.7876 C.3       1 <0>        -0.1108 
      12 C10        0.1517   -0.5341    6.7877 C.3       1 <0>        -0.1085 
      13 C11       -0.1979    0.1029    5.4640 C.2       1 <0>         0.4668 
      14 O3        -0.7503   -0.5370    4.6194 O.2       1 <0>        -0.4984 
      15 O4         0.1139    1.3962    5.2345 O.3       1 <0>        -0.3293 
      16 C12        0.7745    2.1216    6.2748 C.3       1 <0>         0.0498 
      17 C13        2.1213    1.4952    6.5469 C.2       1 <0>         0.5168 
      18 O5         2.4374    1.1894    7.6956 O.2       1 <0>        -0.4913 
      19 N1         2.9662    1.2741    5.5439 N.am      1 <0>        -0.6701 
      20 C14        4.2286    0.6872    5.7973 C.ar      1 <0>         0.1579 
      21 C15        4.5875    0.3376    7.1044 C.ar      1 <0>        -0.1362 
      22 C16        5.8388   -0.2383    7.3552 C.ar      1 <0>        -0.0710 
      23 C17        6.7265   -0.4711    6.2999 C.ar      1 <0>        -0.1038 
      24 C18        6.3664   -0.1234    4.9925 C.ar      1 <0>        -0.0707 
      25 C19        5.1167    0.4552    4.7403 C.ar      1 <0>        -0.1148 
      26 Br1        8.4242   -1.2528    6.6412 Br        1 <0>        -0.0469 
      27 C20       -1.2342   -6.6494   11.0805 C.1       1 <0>         0.2541 
      28 N2        -1.0200   -7.3292   11.9957 N.1       1 <0>        -0.4124 
      29 H1        -0.2522   -7.5841    6.5057 H         1 <0>         0.1051 
      30 H2        -0.2103   -6.8965    4.8675 H         1 <0>         0.0578 
      31 H3         0.6756   -6.1023    6.1873 H         1 <0>         0.0579 
      32 H4        -0.9400   -7.2921    8.5530 H         1 <0>         0.1456 
      33 H5        -2.1228   -4.1262   11.1318 H         1 <0>         0.1399 
      34 H6        -2.5783   -2.6851    9.2349 H         1 <0>         0.1478 
      35 H7        -2.0846   -1.5839    5.6477 H         1 <0>         0.0709 
      36 H8        -2.3096   -1.5132    7.4090 H         1 <0>         0.0709 
      37 H9        -0.0434   -2.4542    7.7363 H         1 <0>         0.0878 
      38 H10        0.1815   -2.5249    5.9750 H         1 <0>         0.0877 
      39 H11       -0.3470    0.0037    7.5912 H         1 <0>         0.1149 
      40 H12        1.2285   -0.4923    6.9365 H         1 <0>         0.1150 
      41 H13        0.1711    2.0900    7.1794 H         1 <0>         0.1060 
      42 H14        0.9120    3.1556    5.9657 H         1 <0>         0.1063 
      43 H15        2.7066    1.5252    4.6007 H         1 <0>         0.4168 
      44 H16        3.8960    0.5118    7.9156 H         1 <0>         0.1372 
      45 H17        6.1179   -0.5095    8.3626 H         1 <0>         0.1390 
      46 H18        7.0543   -0.3030    4.1795 H         1 <0>         0.1383 
      47 H19        4.8333    0.7219    3.7329 H         1 <0>         0.1486 
@<TRIPOS>BOND
       1        1        2 1        
       2        1       29 1        
       3        1       30 1        
       4        1       31 1        
       5        2        3 1        
       6        3        8 ar       
       7        3        4 ar       
       8        4        5 ar       
       9        4       32 1        
      10        5        6 ar       
      11        5       27 1        
      12        6        7 ar       
      13        6       33 1        
      14        7        8 ar       
      15        7       34 1        
      16        8        9 1        
      17        9       10 1        
      18       10       11 1        
      19       10       35 1        
      20       10       36 1        
      21       11       12 1        
      22       11       37 1        
      23       11       38 1        
      24       12       13 1        
      25       12       39 1        
      26       12       40 1        
      27       13       14 2        
      28       13       15 1        
      29       15       16 1        
      30       16       17 1        
      31       16       41 1        
      32       16       42 1        
      33       17       18 2        
      34       17       19 am       
      35       19       20 1        
      36       19       43 1        
      37       20       25 ar       
      38       20       21 ar       
      39       21       22 ar       
      40       21       44 1        
      41       22       23 ar       
      42       22       45 1        
      43       23       24 ar       
      44       23       26 1        
      45       24       25 ar       
      46       24       46 1        
      47       25       47 1        
      48       27       28 3        

