#        1GCZ_R01_S0001_C0000_L00011_S0001_C0050_G0010_E0001.mol2
#        Tue Jun  6 09:58:34 2017
#        Descriptor:     19    35    28    11     8    14
#        Energy - RMSD - RMSD MassCentre:     -58.2487    999.9999    999.9999
#        Receptor:       1  Surface Point:     1  Conformer:     0
#        Ligand:        11  Surface Point:     1  Conformer:    50
#        BUDE Formal Charge: 0
#        ATOM Count: 47
#        Heavy ATOM Count: 28
@<TRIPOS>MOLECULE
ZINC61303593_1GCZ_R01_S0001_C0000_L00011_S0001_C0050_G0010_E0001
 47 48 0 0 0
SMALL
USER_CHARGES
@<TRIPOS>ATOM
       1 C1         8.7903    2.3522    5.7948 C.3       1 <0>         0.0220 
       2 O1         7.4139    2.0385    5.5671 O.3       1 <0>        -0.3006 
       3 C2         7.0703    0.7200    5.4250 C.ar      1 <0>         0.1008 
       4 C3         7.8364   -0.2070    4.7085 C.ar      1 <0>        -0.1273 
       5 C4         7.4301   -1.5424    4.6005 C.ar      1 <0>        -0.0284 
       6 C5         6.2476   -1.9562    5.2135 C.ar      1 <0>        -0.0603 
       7 C6         5.4787   -1.0322    5.9308 C.ar      1 <0>        -0.1775 
       8 C7         5.8836    0.3034    6.0400 C.ar      1 <0>         0.1359 
       9 O2         5.1769    1.2551    6.7267 O.3       1 <0>        -0.2949 
      10 C8         3.7554    1.2771    6.5715 C.3       1 <0>         0.0554 
      11 C9         3.4080    1.5258    5.1044 C.3       1 <0>        -0.1108 
      12 C10        1.8892    1.5493    4.9387 C.3       1 <0>        -0.1085 
      13 C11        1.3097    2.6655    5.7744 C.2       1 <0>         0.4668 
      14 O3         2.0304    3.3607    6.4267 O.2       1 <0>        -0.4984 
      15 O4        -0.0234    2.8781    5.7849 O.3       1 <0>        -0.3293 
      16 C12       -0.8455    2.0208    4.9886 C.3       1 <0>         0.0498 
      17 C13       -0.7284    0.6023    5.4927 C.2       1 <0>         0.5168 
      18 O5        -0.4593   -0.3087    4.7113 O.2       1 <0>        -0.4913 
      19 N1        -0.9162    0.3377    6.7825 N.am      1 <0>        -0.6701 
      20 C14       -0.8068   -0.9911    7.2564 C.ar      1 <0>         0.1579 
      21 C15       -0.4988   -2.0275    6.3672 C.ar      1 <0>        -0.1362 
      22 C16       -0.3958   -3.3429    6.8359 C.ar      1 <0>        -0.0710 
      23 C17       -0.5928   -3.6202    8.1924 C.ar      1 <0>        -0.1038 
      24 C18       -0.8986   -2.5832    9.0818 C.ar      1 <0>        -0.0707 
      25 C19       -1.0048   -1.2678    8.6144 C.ar      1 <0>        -0.1148 
      26 Br1       -0.4526   -5.4054    8.8273 Br        1 <0>        -0.0469 
      27 C20        8.2316   -2.4939    3.8558 C.1       1 <0>         0.2541 
      28 N2         8.8723   -3.2557    3.2602 N.1       1 <0>        -0.4124 
      29 H1         9.3849    2.0043    4.9528 H         1 <0>         0.1051 
      30 H2         8.9037    3.4292    5.8994 H         1 <0>         0.0578 
      31 H3         9.1276    1.8613    6.7053 H         1 <0>         0.0579 
      32 H4         8.7602    0.0519    4.2125 H         1 <0>         0.1456 
      33 H5         5.9318   -2.9858    5.1316 H         1 <0>         0.1399 
      34 H6         4.5744   -1.4126    6.3825 H         1 <0>         0.1478 
      35 H7         3.3410    0.3212    6.8846 H         1 <0>         0.0709 
      36 H8         3.3355    2.0730    7.1829 H         1 <0>         0.0709 
      37 H9         3.8212    2.4819    4.7902 H         1 <0>         0.0878 
      38 H10        3.8267    0.7301    4.4919 H         1 <0>         0.0877 
      39 H11        1.6405    1.7138    3.8924 H         1 <0>         0.1149 
      40 H12        1.4733    0.5987    5.2657 H         1 <0>         0.1150 
      41 H13       -0.5191    2.0647    3.9518 H         1 <0>         0.1060 
      42 H14       -1.8818    2.3450    5.0573 H         1 <0>         0.1063 
      43 H15       -1.1372    1.0857    7.4242 H         1 <0>         0.4168 
      44 H16       -0.3396   -1.8081    5.3218 H         1 <0>         0.1372 
      45 H17       -0.1577   -4.1441    6.1521 H         1 <0>         0.1390 
      46 H18       -1.0517   -2.8002   10.1286 H         1 <0>         0.1383 
      47 H19       -1.2372   -0.4642    9.2974 H         1 <0>         0.1486 
@<TRIPOS>BOND
       1        1        2 1        
       2        1       29 1        
       3        1       30 1        
       4        1       31 1        
       5        2        3 1        
       6        3        8 ar       
       7        3        4 ar       
       8        4        5 ar       
       9        4       32 1        
      10        5        6 ar       
      11        5       27 1        
      12        6        7 ar       
      13        6       33 1        
      14        7        8 ar       
      15        7       34 1        
      16        8        9 1        
      17        9       10 1        
      18       10       11 1        
      19       10       35 1        
      20       10       36 1        
      21       11       12 1        
      22       11       37 1        
      23       11       38 1        
      24       12       13 1        
      25       12       39 1        
      26       12       40 1        
      27       13       14 2        
      28       13       15 1        
      29       15       16 1        
      30       16       17 1        
      31       16       41 1        
      32       16       42 1        
      33       17       18 2        
      34       17       19 am       
      35       19       20 1        
      36       19       43 1        
      37       20       25 ar       
      38       20       21 ar       
      39       21       22 ar       
      40       21       44 1        
      41       22       23 ar       
      42       22       45 1        
      43       23       24 ar       
      44       23       26 1        
      45       24       25 ar       
      46       24       46 1        
      47       25       47 1        
      48       27       28 3        

