#        1GCZ_R01_S0001_C0000_L00011_S0001_C0050_G0010_E0001.mol2
#        Tue Jun  6 14:12:57 2017
#        Descriptor:     18    22    19     8     4    14
#        Energy - RMSD - RMSD MassCentre:     -58.7871    999.9999    999.9999
#        Receptor:       1  Surface Point:     1  Conformer:     0
#        Ligand:        11  Surface Point:     1  Conformer:    50
#        BUDE Formal Charge: 0
#        ATOM Count: 47
#        Heavy ATOM Count: 28
@<TRIPOS>MOLECULE
ZINC61303593_1GCZ_R01_S0001_C0000_L00011_S0001_C0050_G0010_E0001
 47 48 0 0 0
SMALL
USER_CHARGES
@<TRIPOS>ATOM
       1 C1         1.0246   -9.8543    7.9440 C.3       1 <0>         0.0220 
       2 O1         0.8361   -8.4402    7.8468 O.3       1 <0>        -0.3006 
       3 C2         1.5710   -7.7566    6.9146 C.ar      1 <0>         0.1008 
       4 C3         2.9196   -8.0199    6.6467 C.ar      1 <0>        -0.1273 
       5 C4         3.6157   -7.2844    5.6800 C.ar      1 <0>        -0.0284 
       6 C5         2.9593   -6.2764    4.9740 C.ar      1 <0>        -0.0603 
       7 C6         1.6108   -6.0100    5.2390 C.ar      1 <0>        -0.1775 
       8 C7         0.9132   -6.7446    6.2053 C.ar      1 <0>         0.1359 
       9 O2        -0.4053   -6.5332    6.5110 O.3       1 <0>        -0.2949 
      10 C8        -0.8583   -5.1818    6.6283 C.3       1 <0>         0.0554 
      11 C9        -0.0884   -4.4830    7.7480 C.3       1 <0>        -0.1108 
      12 C10       -0.5724   -3.0391    7.8734 C.3       1 <0>        -0.1085 
      13 C11       -2.0439   -3.0301    8.2124 C.2       1 <0>         0.4668 
      14 O3        -2.6352   -4.0609    8.3386 O.2       1 <0>        -0.4984 
      15 O4        -2.6920   -1.8568    8.3729 O.3       1 <0>        -0.3293 
      16 C12       -1.9428   -0.6494    8.2121 C.3       1 <0>         0.0498 
      17 C13       -1.4332   -0.5595    6.7935 C.2       1 <0>         0.5168 
      18 O5        -0.2403   -0.3492    6.5800 O.2       1 <0>        -0.4913 
      19 N1        -2.2747   -0.7079    5.7744 N.am      1 <0>        -0.6701 
      20 C14       -1.7987   -0.6239    4.4445 C.ar      1 <0>         0.1579 
      21 C15       -0.4406   -0.3863    4.2016 C.ar      1 <0>        -0.1362 
      22 C16        0.0289   -0.2981    2.8855 C.ar      1 <0>        -0.0710 
      23 C17       -0.8564   -0.4550    1.8144 C.ar      1 <0>        -0.1038 
      24 C18       -2.2141   -0.6948    2.0576 C.ar      1 <0>        -0.0707 
      25 C19       -2.6858   -0.7804    3.3730 C.ar      1 <0>        -0.1148 
      26 Br1       -0.2183   -0.3353    0.0288 Br        1 <0>        -0.0469 
      27 C20        5.0124   -7.5659    5.4109 C.1       1 <0>         0.2541 
      28 N2         6.1298   -7.7906    5.1951 N.1       1 <0>        -0.4124 
      29 H1         2.0597  -10.0645    8.2048 H         1 <0>         0.1051 
      30 H2         0.3676  -10.2552    8.7131 H         1 <0>         0.0578 
      31 H3         0.7895  -10.3175    6.9880 H         1 <0>         0.0579 
      32 H4         3.4820   -8.7864    7.1591 H         1 <0>         0.1456 
      33 H5         3.4940   -5.7075    4.2278 H         1 <0>         0.1399 
      34 H6         1.1582   -5.2184    4.6604 H         1 <0>         0.1478 
      35 H7        -0.6872   -4.6585    5.6900 H         1 <0>         0.0709 
      36 H8        -1.9212   -5.1739    6.8603 H         1 <0>         0.0709 
      37 H9        -0.2592   -5.0049    8.6871 H         1 <0>         0.0878 
      38 H10        0.9748   -4.4896    7.5169 H         1 <0>         0.0877 
      39 H11       -0.0162   -2.5367    8.6619 H         1 <0>         0.1149 
      40 H12       -0.4149   -2.5200    6.9304 H         1 <0>         0.1150 
      41 H13       -1.1002   -0.6503    8.9002 H         1 <0>         0.1060 
      42 H14       -2.5823    0.2055    8.4218 H         1 <0>         0.1063 
      43 H15       -3.2543   -0.8806    5.9498 H         1 <0>         0.4168 
      44 H16        0.2413   -0.2736    5.0316 H         1 <0>         0.1372 
      45 H17        1.0762   -0.1155    2.6955 H         1 <0>         0.1390 
      46 H18       -2.8960   -0.8141    1.2286 H         1 <0>         0.1383 
      47 H19       -3.7317   -0.9686    3.5654 H         1 <0>         0.1486 
@<TRIPOS>BOND
       1        1        2 1        
       2        1       29 1        
       3        1       30 1        
       4        1       31 1        
       5        2        3 1        
       6        3        8 ar       
       7        3        4 ar       
       8        4        5 ar       
       9        4       32 1        
      10        5        6 ar       
      11        5       27 1        
      12        6        7 ar       
      13        6       33 1        
      14        7        8 ar       
      15        7       34 1        
      16        8        9 1        
      17        9       10 1        
      18       10       11 1        
      19       10       35 1        
      20       10       36 1        
      21       11       12 1        
      22       11       37 1        
      23       11       38 1        
      24       12       13 1        
      25       12       39 1        
      26       12       40 1        
      27       13       14 2        
      28       13       15 1        
      29       15       16 1        
      30       16       17 1        
      31       16       41 1        
      32       16       42 1        
      33       17       18 2        
      34       17       19 am       
      35       19       20 1        
      36       19       43 1        
      37       20       25 ar       
      38       20       21 ar       
      39       21       22 ar       
      40       21       44 1        
      41       22       23 ar       
      42       22       45 1        
      43       23       24 ar       
      44       23       26 1        
      45       24       25 ar       
      46       24       46 1        
      47       25       47 1        
      48       27       28 3        

