#        1GCZ_R01_S0001_C0000_L00012_S0001_C0000_G0010_E0001.mol2
#        Tue Jun  6 14:12:59 2017
#        Descriptor:     36    21     2     7     7    13
#        Energy - RMSD - RMSD MassCentre:     -73.7484    999.9999    999.9999
#        Receptor:       1  Surface Point:     1  Conformer:     0
#        Ligand:        12  Surface Point:     1  Conformer:     0
#        BUDE Formal Charge: 0
#        ATOM Count: 54
#        Heavy ATOM Count: 28
@<TRIPOS>MOLECULE
ZINC61282011_1GCZ_R01_S0001_C0000_L00012_S0001_C0000_G0010_E0001
 54 56 0 0 0
SMALL
USER_CHARGES
@<TRIPOS>ATOM
       1 C1        -0.6187   -0.1918   -5.0091 C.3       1 <0>        -0.1394 
       2 C2        -0.7846    0.7217   -3.7930 C.3       1 <0>        -0.1416 
       3 C3        -0.4988   -0.0586   -2.5359 C.2       1 <0>         0.5168 
       4 O1        -0.1926   -1.2300   -2.6057 O.2       1 <0>        -0.5327 
       5 N1        -0.5834    0.5453   -1.3340 N.am      1 <0>        -0.7288 
       6 C4        -0.3056   -0.2134   -0.1119 C.3       1 <0>         0.1281 
       7 C5        -0.4690    0.6864    1.0859 C.2       1 <0>         0.4647 
       8 O2        -0.7851    1.8426    0.9344 O.2       1 <0>        -0.5000 
       9 O3        -0.2634    0.2032    2.3213 O.3       1 <0>        -0.3169 
      10 C6        -0.4360    1.1121    3.4104 C.3       1 <0>         0.0729 
      11 C7         0.8941    1.8055    3.7117 C.3       1 <0>        -0.1704 
      12 C8        -0.8947    0.3541    4.6294 C.2       1 <0>         0.5166 
      13 O4        -0.9708   -0.8561    4.5980 O.2       1 <0>        -0.4890 
      14 N2        -1.2206    1.0207    5.7545 N.am      1 <0>        -0.6633 
      15 C9        -1.7387    0.3260    6.8552 C.ar      1 <0>         0.1513 
      16 C10       -2.7049    0.9180    7.6577 C.ar      1 <0>        -0.1318 
      17 C11       -3.2176    0.2336    8.7431 C.ar      1 <0>        -0.0823 
      18 C12       -2.7694   -1.0445    9.0340 C.ar      1 <0>         0.0206 
      19 C13       -1.7999   -1.6409    8.2308 C.ar      1 <0>         0.0545 
      20 C14       -1.2903   -0.9564    7.1403 C.ar      1 <0>        -0.1051 
      21 O5        -1.5319   -2.8875    8.7213 O.3       1 <0>        -0.2879 
      22 C15       -2.0578   -2.8930   10.0563 C.3       1 <0>         0.2651 
      23 O6        -3.1091   -1.9172   10.0297 O.3       1 <0>        -0.2965 
      24 C16       -0.9784   -2.4852   11.0533 C.3       1 <0>        -0.1489 
      25 C17        0.1483   -3.5216   11.0392 C.3       1 <0>        -0.1151 
      26 C18       -0.4185   -4.8936   11.4098 C.3       1 <0>        -0.1246 
      27 C19       -1.4856   -5.2994   10.3911 C.3       1 <0>        -0.1168 
      28 C20       -2.6175   -4.2688   10.4013 C.3       1 <0>        -0.1129 
      29 H1         0.4024   -0.5716   -5.0417 H         1 <0>         0.0628 
      30 H2        -1.3149   -1.0270   -4.9338 H         1 <0>         0.0629 
      31 H3        -0.8255    0.3727   -5.9184 H         1 <0>         0.0642 
      32 H4        -0.0884    1.5570   -3.8684 H         1 <0>         0.0966 
      33 H5        -1.8058    1.1017   -3.7606 H         1 <0>         0.0967 
      34 H6        -0.8284    1.4822   -1.2781 H         1 <0>         0.4129 
      35 H7        -1.0018   -1.0487   -0.0366 H         1 <0>         0.1177 
      36 H8         0.7155   -0.5932   -0.1443 H         1 <0>         0.1174 
      37 H9        -1.1834    1.8596    3.1448 H         1 <0>         0.1170 
      38 H10        1.6417    1.0579    3.9773 H         1 <0>         0.0784 
      39 H11        1.2260    2.3538    2.8301 H         1 <0>         0.0805 
      40 H12        0.7625    2.4988    4.5424 H         1 <0>         0.0845 
      41 H13       -1.0964    1.9815    5.8020 H         1 <0>         0.4164 
      42 H14       -3.0562    1.9142    7.4331 H         1 <0>         0.1427 
      43 H15       -3.9689    0.6963    9.3661 H         1 <0>         0.1415 
      44 H16       -0.5414   -1.4185    6.5141 H         1 <0>         0.1512 
      45 H17       -0.5781   -1.5098   10.7765 H         1 <0>         0.0736 
      46 H18       -1.4092   -2.4306   12.0530 H         1 <0>         0.0900 
      47 H19        0.5882   -3.5670   10.0429 H         1 <0>         0.0715 
      48 H20        0.9131   -3.2370   11.7619 H         1 <0>         0.0728 
      49 H21        0.3843   -5.6308   11.4076 H         1 <0>         0.0706 
      50 H22       -0.8645   -4.8459   12.4032 H         1 <0>         0.0661 
      51 H23       -1.0413   -5.3413    9.3966 H         1 <0>         0.0735 
      52 H24       -1.8841   -6.2795   10.6529 H         1 <0>         0.0762 
      53 H25       -3.0717   -4.2380   11.3917 H         1 <0>         0.0928 
      54 H26       -3.3708   -4.5493    9.6651 H         1 <0>         0.0829 
@<TRIPOS>BOND
       1        1        2 1        
       2        1       29 1        
       3        1       30 1        
       4        1       31 1        
       5        2        3 1        
       6        2       32 1        
       7        2       33 1        
       8        3        4 2        
       9        3        5 am       
      10        5        6 1        
      11        5       34 1        
      12        6        7 1        
      13        6       35 1        
      14        6       36 1        
      15        7        8 2        
      16        7        9 1        
      17        9       10 1        
      18       10       11 1        
      19       10       12 1        
      20       10       37 1        
      21       11       38 1        
      22       11       39 1        
      23       11       40 1        
      24       12       13 2        
      25       12       14 am       
      26       14       15 1        
      27       14       41 1        
      28       15       20 ar       
      29       15       16 ar       
      30       16       17 ar       
      31       16       42 1        
      32       17       18 ar       
      33       17       43 1        
      34       18       23 1        
      35       18       19 ar       
      36       19       20 ar       
      37       19       21 1        
      38       20       44 1        
      39       21       22 1        
      40       22       28 1        
      41       22       23 1        
      42       22       24 1        
      43       24       25 1        
      44       24       45 1        
      45       24       46 1        
      46       25       26 1        
      47       25       47 1        
      48       25       48 1        
      49       26       27 1        
      50       26       49 1        
      51       26       50 1        
      52       27       28 1        
      53       27       51 1        
      54       27       52 1        
      55       28       53 1        
      56       28       54 1        

