#        1GCZ_R01_S0001_C0000_L00003_S0001_C0017_G0010_E0001.mol2
#        Tue Jun  6 09:54:50 2017
#        Descriptor:     18     9    32    11     4    15
#        Energy - RMSD - RMSD MassCentre:     -55.1367    999.9999    999.9999
#        Receptor:       1  Surface Point:     1  Conformer:     0
#        Ligand:         3  Surface Point:     1  Conformer:    17
#        BUDE Formal Charge: 0
#        ATOM Count: 58
#        Heavy ATOM Count: 30
@<TRIPOS>MOLECULE
ZINC61580633_1GCZ_R01_S0001_C0000_L00003_S0001_C0017_G0010_E0001
 58 59 0 0 0
SMALL
USER_CHARGES
@<TRIPOS>ATOM
       1 C1        -2.1975   -5.2988   11.3314 C.3       1 <0>        -0.1532 
       2 C2        -0.8231   -4.9354   10.7768 C.3       1 <0>        -0.1224 
       3 C3         0.2331   -5.8494   11.3964 C.3       1 <0>        -0.1198 
       4 C4         1.6093   -5.4854   10.8410 C.3       1 <0>         0.0610 
       5 O1         1.6297   -5.7179    9.4301 O.3       1 <0>        -0.3878 
       6 C5         2.8973   -5.3937    8.8531 C.3       1 <0>         0.0487 
       7 C6         2.8552   -5.6626    7.3496 C.3       1 <0>         0.1244 
       8 N1         2.8460   -7.1133    7.1122 N.am      1 <0>        -0.7216 
       9 C7         2.8106   -7.5829    5.8684 C.2       1 <0>         0.5161 
      10 O2         2.8028   -8.7964    5.6684 O.2       1 <0>        -0.5151 
      11 C8         2.7802   -6.6256    4.7010 C.3       1 <0>         0.0490 
      12 O3         4.0441   -5.9653    4.5939 O.3       1 <0>        -0.3194 
      13 C9         5.1328   -6.7201    4.3342 C.2       1 <0>         0.5417 
      14 O4         5.0208   -7.9274    4.1984 O.2       1 <0>        -0.5337 
      15 C10        6.4629   -6.0827    4.2143 C.2       1 <0>        -0.2559 
      16 C11        7.7204   -6.8157    3.9458 C.2       1 <0>        -0.0791 
      17 C12        8.7810   -6.0062    3.8994 C.2       1 <0>        -0.2585 
      18 S1         8.3566   -4.3090    4.1667 S.3       1 <0>         0.3028 
      19 C13        6.6563   -4.7639    4.3520 C.2       1 <0>         0.0893 
      20 N2         5.6269   -3.8994    4.6167 N.am      1 <0>        -0.6099 
      21 C14        5.8671   -2.5976    4.7453 C.2       1 <0>         0.5551 
      22 O5         7.0140   -2.1695    4.6264 O.2       1 <0>        -0.4939 
      23 C15        4.7540   -1.6651    5.0312 C.ar      1 <0>        -0.1466 
      24 C16        5.0522   -0.3034    5.1618 C.ar      1 <0>        -0.0772 
      25 C17        4.0548    0.6171    5.5045 C.ar      1 <0>        -0.1241 
      26 C18        2.7412    0.1911    5.7332 C.ar      1 <0>        -0.0446 
      27 C19        2.4291   -1.1615    5.5514 C.ar      1 <0>        -0.1261 
      28 C20        3.4235   -2.0743    5.1801 C.ar      1 <0>        -0.0460 
      29 C21        1.6933    1.1901    6.1625 C.3       1 <0>        -0.0928 
      30 C22        1.6592    1.2670    7.6861 C.3       1 <0>        -0.1485 
      31 H1        -2.2007   -5.1599   12.4105 H         1 <0>         0.0567 
      32 H2        -2.4187   -6.3382   11.0983 H         1 <0>         0.0554 
      33 H3        -2.9513   -4.6570   10.8802 H         1 <0>         0.0557 
      34 H4        -0.8225   -5.0619    9.6961 H         1 <0>         0.0632 
      35 H5        -0.5946   -3.9002   11.0215 H         1 <0>         0.0635 
      36 H6         0.2340   -5.7233   12.4769 H         1 <0>         0.0711 
      37 H7         0.0062   -6.8849   11.1516 H         1 <0>         0.0704 
      38 H8         1.8145   -4.4352   11.0379 H         1 <0>         0.0498 
      39 H9         2.3685   -6.1001   11.3201 H         1 <0>         0.0505 
      40 H10        3.6717   -6.0071    9.3090 H         1 <0>         0.0584 
      41 H11        3.1175   -4.3424    9.0268 H         1 <0>         0.0702 
      42 H12        3.7319   -5.2241    6.8775 H         1 <0>         0.0872 
      43 H13        1.9555   -5.2208    6.9267 H         1 <0>         0.0805 
      44 H14        2.8664   -7.7536    7.8930 H         1 <0>         0.4058 
      45 H15        2.5808   -7.1767    3.7844 H         1 <0>         0.1008 
      46 H16        1.9977   -5.8862    4.8579 H         1 <0>         0.0999 
      47 H17        7.7512   -7.8846    3.7953 H         1 <0>         0.1557 
      48 H18        9.7816   -6.3632    3.7051 H         1 <0>         0.1929 
      49 H19        4.6852   -4.2509    4.7143 H         1 <0>         0.4317 
      50 H20        6.0627    0.0424    5.0014 H         1 <0>         0.1287 
      51 H21        4.2954    1.6659    5.5963 H         1 <0>         0.1326 
      52 H22        1.4105   -1.4896    5.6976 H         1 <0>         0.1342 
      53 H23        3.1124   -3.0921    4.9969 H         1 <0>         0.1410 
      54 H24        0.7198    0.8750    5.7927 H         1 <0>         0.0777 
      55 H25        1.9375    2.1687    5.7546 H         1 <0>         0.0771 
      56 H26        2.6294    1.5942    8.0539 H         1 <0>         0.0623 
      57 H27        1.4288    0.2846    8.0932 H         1 <0>         0.0572 
      58 H28        0.8950    1.9769    7.9956 H         1 <0>         0.0578 
@<TRIPOS>BOND
       1        1        2 1        
       2        1       31 1        
       3        1       32 1        
       4        1       33 1        
       5        2        3 1        
       6        2       34 1        
       7        2       35 1        
       8        3        4 1        
       9        3       36 1        
      10        3       37 1        
      11        4        5 1        
      12        4       38 1        
      13        4       39 1        
      14        5        6 1        
      15        6        7 1        
      16        6       40 1        
      17        6       41 1        
      18        7        8 1        
      19        7       42 1        
      20        7       43 1        
      21        8        9 am       
      22        8       44 1        
      23        9       10 2        
      24        9       11 1        
      25       11       12 1        
      26       11       45 1        
      27       11       46 1        
      28       12       13 1        
      29       13       14 2        
      30       13       15 1        
      31       15       19 2        
      32       15       16 1        
      33       16       17 2        
      34       16       47 1        
      35       17       18 1        
      36       17       48 1        
      37       18       19 1        
      38       19       20 1        
      39       20       21 am       
      40       20       49 1        
      41       21       22 2        
      42       21       23 1        
      43       23       28 ar       
      44       23       24 ar       
      45       24       25 ar       
      46       24       50 1        
      47       25       26 ar       
      48       25       51 1        
      49       26       27 ar       
      50       26       29 1        
      51       27       28 ar       
      52       27       52 1        
      53       28       53 1        
      54       29       30 1        
      55       29       54 1        
      56       29       55 1        
      57       30       56 1        
      58       30       57 1        
      59       30       58 1        

