#        1GCZ_R01_S0001_C0000_L00012_S0001_C0001_G0010_E0001.mol2
#        Tue Jun  6 09:58:36 2017
#        Descriptor:     15    32    25    10     9    12
#        Energy - RMSD - RMSD MassCentre:     -78.5534    999.9999    999.9999
#        Receptor:       1  Surface Point:     1  Conformer:     0
#        Ligand:        12  Surface Point:     1  Conformer:     1
#        BUDE Formal Charge: 0
#        ATOM Count: 54
#        Heavy ATOM Count: 28
@<TRIPOS>MOLECULE
ZINC61282011_1GCZ_R01_S0001_C0000_L00012_S0001_C0001_G0010_E0001
 54 56 0 0 0
SMALL
USER_CHARGES
@<TRIPOS>ATOM
       1 C1         6.0642   -0.6248    5.1537 C.3       1 <0>        -0.1394 
       2 C2         6.9393   -0.1296    6.3016 C.3       1 <0>        -0.1416 
       3 C3         6.2951    1.0779    6.9396 C.2       1 <0>         0.5168 
       4 O1         5.9696    1.0478    8.1254 O.2       1 <0>        -0.5327 
       5 N1         6.0796    2.1748    6.2191 N.am      1 <0>        -0.7288 
       6 C4         5.4525    3.3502    6.8402 C.3       1 <0>         0.1281 
       7 C5         3.9689    3.1099    6.9862 C.2       1 <0>         0.4647 
       8 O2         3.1913    3.7787    6.3732 O.2       1 <0>        -0.5000 
       9 O3         3.5208    2.1388    7.8099 O.3       1 <0>        -0.3169 
      10 C6         2.1075    1.9483    7.9158 C.3       1 <0>         0.0729 
      11 C7         1.8156    0.8606    8.9455 C.3       1 <0>        -0.1704 
      12 C8         1.5549    1.5311    6.5738 C.2       1 <0>         0.5166 
      13 O4         2.3134    1.3673    5.6195 O.2       1 <0>        -0.4890 
      14 N2         0.2473    1.3405    6.4237 N.am      1 <0>        -0.6633 
      15 C9        -0.2720    0.9494    5.1670 C.ar      1 <0>         0.1513 
      16 C10       -1.6457    0.7085    5.0452 C.ar      1 <0>        -0.1318 
      17 C11       -2.2142    0.3194    3.8264 C.ar      1 <0>        -0.0823 
      18 C12       -1.3377    0.1857    2.7431 C.ar      1 <0>         0.0206 
      19 C13        0.0336    0.4346    2.8740 C.ar      1 <0>         0.0545 
      20 C14        0.6154    0.8224    4.0868 C.ar      1 <0>        -0.1051 
      21 O5         0.6944    0.1558    1.6796 O.3       1 <0>        -0.2879 
      22 C15       -0.4460    0.2085    0.8185 C.3       1 <0>         0.2651 
      23 O6        -1.6621   -0.1796    1.4630 O.3       1 <0>        -0.2965 
      24 C16       -0.1760   -0.7454   -0.4542 C.3       1 <0>        -0.1489 
      25 C17        1.0605   -0.2695   -1.2390 C.3       1 <0>        -0.1151 
      26 C18        0.8938    1.1984   -1.6740 C.3       1 <0>        -0.1246 
      27 C19        0.6639    2.1118   -0.4555 C.3       1 <0>        -0.1168 
      28 C20       -0.5678    1.6731    0.3582 C.3       1 <0>        -0.1129 
      29 H1         5.9692    0.1602    4.4062 H         1 <0>         0.0628 
      30 H2         6.5218   -1.5026    4.7024 H         1 <0>         0.0629 
      31 H3         5.0790   -0.8841    5.5354 H         1 <0>         0.0642 
      32 H4         7.9205    0.1435    5.9187 H         1 <0>         0.0966 
      33 H5         7.0454   -0.9179    7.0438 H         1 <0>         0.0967 
      34 H6         6.3465    2.2006    5.2452 H         1 <0>         0.4129 
      35 H7         5.8901    3.5194    7.8218 H         1 <0>         0.1177 
      36 H8         5.6177    4.2240    6.2134 H         1 <0>         0.1174 
      37 H9         1.6376    2.8788    8.2272 H         1 <0>         0.1170 
      38 H10        2.2962   -0.0662    8.6393 H         1 <0>         0.0784 
      39 H11        2.2019    1.1671    9.9152 H         1 <0>         0.0805 
      40 H12        0.7407    0.7067    9.0147 H         1 <0>         0.0845 
      41 H13       -0.3755    1.4749    7.2073 H         1 <0>         0.4164 
      42 H14       -2.2847    0.8259    5.9079 H         1 <0>         0.1427 
      43 H15       -3.2738    0.1335    3.7307 H         1 <0>         0.1415 
      44 H16        1.6760    1.0106    4.1646 H         1 <0>         0.1512 
      45 H17       -0.0311   -1.7737   -0.1302 H         1 <0>         0.0736 
      46 H18       -1.0516   -0.7254   -1.0996 H         1 <0>         0.0900 
      47 H19        1.1923   -0.8918   -2.1217 H         1 <0>         0.0715 
      48 H20        1.9517   -0.3694   -0.6229 H         1 <0>         0.0728 
      49 H21        1.7885    1.5236   -2.2006 H         1 <0>         0.0706 
      50 H22        0.0531    1.2861   -2.3590 H         1 <0>         0.0661 
      51 H23        0.5173    3.1341   -0.7975 H         1 <0>         0.0735 
      52 H24        1.5453    2.0963    0.1824 H         1 <0>         0.0762 
      53 H25       -0.6693    2.3096    1.2344 H         1 <0>         0.0928 
      54 H26       -1.4640    1.7941   -0.2466 H         1 <0>         0.0829 
@<TRIPOS>BOND
       1        1        2 1        
       2        1       29 1        
       3        1       30 1        
       4        1       31 1        
       5        2        3 1        
       6        2       32 1        
       7        2       33 1        
       8        3        4 2        
       9        3        5 am       
      10        5        6 1        
      11        5       34 1        
      12        6        7 1        
      13        6       35 1        
      14        6       36 1        
      15        7        8 2        
      16        7        9 1        
      17        9       10 1        
      18       10       11 1        
      19       10       12 1        
      20       10       37 1        
      21       11       38 1        
      22       11       39 1        
      23       11       40 1        
      24       12       13 2        
      25       12       14 am       
      26       14       15 1        
      27       14       41 1        
      28       15       20 ar       
      29       15       16 ar       
      30       16       17 ar       
      31       16       42 1        
      32       17       18 ar       
      33       17       43 1        
      34       18       23 1        
      35       18       19 ar       
      36       19       20 ar       
      37       19       21 1        
      38       20       44 1        
      39       21       22 1        
      40       22       28 1        
      41       22       23 1        
      42       22       24 1        
      43       24       25 1        
      44       24       45 1        
      45       24       46 1        
      46       25       26 1        
      47       25       47 1        
      48       25       48 1        
      49       26       27 1        
      50       26       49 1        
      51       26       50 1        
      52       27       28 1        
      53       27       51 1        
      54       27       52 1        
      55       28       53 1        
      56       28       54 1        

