#        1GCZ_R01_S0001_C0000_L00012_S0001_C0002_G0010_E0001.mol2
#        Tue Jun  6 09:58:37 2017
#        Descriptor:     35    23     3     9     7    10
#        Energy - RMSD - RMSD MassCentre:     -88.3098    999.9999    999.9999
#        Receptor:       1  Surface Point:     1  Conformer:     0
#        Ligand:        12  Surface Point:     1  Conformer:     2
#        BUDE Formal Charge: 0
#        ATOM Count: 54
#        Heavy ATOM Count: 28
@<TRIPOS>MOLECULE
ZINC61282011_1GCZ_R01_S0001_C0000_L00012_S0001_C0002_G0010_E0001
 54 56 0 0 0
SMALL
USER_CHARGES
@<TRIPOS>ATOM
       1 C1         1.4450   -6.0066    6.3129 C.3       1 <0>        -0.1394 
       2 C2         2.5196   -5.4066    5.4110 C.3       1 <0>        -0.1416 
       3 C3         2.9691   -4.0811    5.9780 C.2       1 <0>         0.5168 
       4 O1         2.4691   -3.6550    7.0179 O.2       1 <0>        -0.5327 
       5 N1         3.9062   -3.3743    5.3528 N.am      1 <0>        -0.7288 
       6 C4         4.3437   -2.0841    5.9048 C.3       1 <0>         0.1281 
       7 C5         3.3012   -1.0321    5.6104 C.2       1 <0>         0.4647 
       8 O2         3.5616   -0.1182    4.8858 O.2       1 <0>        -0.5000 
       9 O3         2.0743   -1.1242    6.1659 O.3       1 <0>        -0.3169 
      10 C6         1.1203   -0.1045    5.8577 C.3       1 <0>         0.0729 
      11 C7        -0.1655   -0.3565    6.6400 C.3       1 <0>        -0.1704 
      12 C8         0.8208   -0.1272    4.3779 C.2       1 <0>         0.5166 
      13 O4         1.3457   -0.9738    3.6563 O.2       1 <0>        -0.4890 
      14 N2        -0.0112    0.7685    3.8544 N.am      1 <0>        -0.6633 
      15 C9        -0.2929    0.7484    2.4679 C.ar      1 <0>         0.1513 
      16 C10       -1.1719    1.7014    1.9398 C.ar      1 <0>        -0.1318 
      17 C11       -1.4869    1.7288    0.5760 C.ar      1 <0>        -0.0823 
      18 C12       -0.8772    0.7561   -0.2253 C.ar      1 <0>         0.0206 
      19 C13        0.0050   -0.1890    0.3118 C.ar      1 <0>         0.0545 
      20 C14        0.3270   -0.2288    1.6735 C.ar      1 <0>        -0.1051 
      21 O5         0.4110   -1.0885   -0.6715 O.3       1 <0>        -0.2879 
      22 C15        0.0746   -0.2880   -1.8075 C.3       1 <0>         0.2651 
      23 O6        -1.0312    0.5888   -1.5763 O.3       1 <0>        -0.2965 
      24 C16       -0.2803   -1.2191   -3.0826 C.3       1 <0>        -0.1489 
      25 C17       -0.4509   -0.3669   -4.3538 C.3       1 <0>        -0.1151 
      26 C18        0.8145    0.4701   -4.6184 C.3       1 <0>        -0.1246 
      27 C19        1.1397    1.3734   -3.4143 C.3       1 <0>        -0.1168 
      28 C20        1.3246    0.5541   -2.1236 C.3       1 <0>        -0.1129 
      29 H1         0.5910   -5.3338    6.3555 H         1 <0>         0.0628 
      30 H2         1.1307   -6.9676    5.9114 H         1 <0>         0.0629 
      31 H3         1.8485   -6.1453    7.3137 H         1 <0>         0.0642 
      32 H4         2.1130   -5.2542    4.4133 H         1 <0>         0.0966 
      33 H5         3.3692   -6.0841    5.3575 H         1 <0>         0.0967 
      34 H6         4.3174   -3.7234    4.4989 H         1 <0>         0.4129 
      35 H7         4.4727   -2.1744    6.9813 H         1 <0>         0.1177 
      36 H8         5.2883   -1.7953    5.4489 H         1 <0>         0.1174 
      37 H9         1.5264    0.8675    6.1299 H         1 <0>         0.1170 
      38 H10       -0.5641   -1.3339    6.3762 H         1 <0>         0.0784 
      39 H11        0.0477   -0.3268    7.7064 H         1 <0>         0.0805 
      40 H12       -0.8955    0.4119    6.3939 H         1 <0>         0.0845 
      41 H13       -0.4422    1.4636    4.4468 H         1 <0>         0.4164 
      42 H14       -1.6180    2.4345    2.5955 H         1 <0>         0.1427 
      43 H15       -2.1645    2.4636    0.1669 H         1 <0>         0.1415 
      44 H16        1.0115   -0.9662    2.0660 H         1 <0>         0.1512 
      45 H17        0.5039   -1.9569   -3.2383 H         1 <0>         0.0736 
      46 H18       -1.2018   -1.7591   -2.8752 H         1 <0>         0.0900 
      47 H19       -1.3024    0.2995   -4.2330 H         1 <0>         0.0715 
      48 H20       -0.6485   -1.0111   -5.2080 H         1 <0>         0.0728 
      49 H21        1.6557   -0.1946   -4.8041 H         1 <0>         0.0706 
      50 H22        0.6715    1.0832   -5.5058 H         1 <0>         0.0661 
      51 H23        0.3282    2.0837   -3.2706 H         1 <0>         0.0735 
      52 H24        2.0462    1.9395   -3.6185 H         1 <0>         0.0762 
      53 H25        2.1777   -0.1115   -2.2353 H         1 <0>         0.0928 
      54 H26        1.5334    1.2263   -1.2939 H         1 <0>         0.0829 
@<TRIPOS>BOND
       1        1        2 1        
       2        1       29 1        
       3        1       30 1        
       4        1       31 1        
       5        2        3 1        
       6        2       32 1        
       7        2       33 1        
       8        3        4 2        
       9        3        5 am       
      10        5        6 1        
      11        5       34 1        
      12        6        7 1        
      13        6       35 1        
      14        6       36 1        
      15        7        8 2        
      16        7        9 1        
      17        9       10 1        
      18       10       11 1        
      19       10       12 1        
      20       10       37 1        
      21       11       38 1        
      22       11       39 1        
      23       11       40 1        
      24       12       13 2        
      25       12       14 am       
      26       14       15 1        
      27       14       41 1        
      28       15       20 ar       
      29       15       16 ar       
      30       16       17 ar       
      31       16       42 1        
      32       17       18 ar       
      33       17       43 1        
      34       18       23 1        
      35       18       19 ar       
      36       19       20 ar       
      37       19       21 1        
      38       20       44 1        
      39       21       22 1        
      40       22       28 1        
      41       22       23 1        
      42       22       24 1        
      43       24       25 1        
      44       24       45 1        
      45       24       46 1        
      46       25       26 1        
      47       25       47 1        
      48       25       48 1        
      49       26       27 1        
      50       26       49 1        
      51       26       50 1        
      52       27       28 1        
      53       27       51 1        
      54       27       52 1        
      55       28       53 1        
      56       28       54 1        

