#        1GCZ_R01_S0001_C0000_L00012_S0001_C0002_G0010_E0001.mol2
#        Tue Jun  6 14:13:03 2017
#        Descriptor:     16    33    26    10     9    13
#        Energy - RMSD - RMSD MassCentre:     -82.3204    999.9999    999.9999
#        Receptor:       1  Surface Point:     1  Conformer:     0
#        Ligand:        12  Surface Point:     1  Conformer:     2
#        BUDE Formal Charge: 0
#        ATOM Count: 54
#        Heavy ATOM Count: 28
@<TRIPOS>MOLECULE
ZINC61282011_1GCZ_R01_S0001_C0000_L00012_S0001_C0002_G0010_E0001
 54 56 0 0 0
SMALL
USER_CHARGES
@<TRIPOS>ATOM
       1 C1         7.1575    0.0033    9.0339 C.3       1 <0>        -0.1394 
       2 C2         7.0597    0.8714    7.7828 C.3       1 <0>        -0.1416 
       3 C3         6.2799    2.1249    8.1004 C.2       1 <0>         0.5168 
       4 O1         5.8402    2.3055    9.2349 O.2       1 <0>        -0.5327 
       5 N1         6.0683    3.0340    7.1532 N.am      1 <0>        -0.7288 
       6 C4         5.3092    4.2542    7.4624 C.3       1 <0>         0.1281 
       7 C5         3.8366    3.9264    7.5287 C.2       1 <0>         0.4647 
       8 O2         3.0833    4.3929    6.7269 O.2       1 <0>        -0.5000 
       9 O3         3.3709    3.1060    8.4943 O.3       1 <0>        -0.3169 
      10 C6         1.9690    2.8247    8.5168 C.3       1 <0>         0.0729 
      11 C7         1.6453    1.9444    9.7206 C.3       1 <0>        -0.1704 
      12 C8         1.5807    2.1037    7.2482 C.2       1 <0>         0.5166 
      13 O4         2.4395    1.8155    6.4161 O.2       1 <0>        -0.4890 
      14 N2         0.3093    1.7798    7.0304 N.am      1 <0>        -0.6633 
      15 C9        -0.0561    1.1041    5.8421 C.ar      1 <0>         0.1513 
      16 C10       -1.4006    0.7735    5.6351 C.ar      1 <0>        -0.1318 
      17 C11       -1.8192    0.1053    4.4783 C.ar      1 <0>        -0.0823 
      18 C12       -0.8243   -0.2117    3.5457 C.ar      1 <0>         0.0206 
      19 C13        0.5167    0.1285    3.7597 C.ar      1 <0>         0.0545 
      20 C14        0.9491    0.7947    4.9125 C.ar      1 <0>        -0.1051 
      21 O5         1.3136   -0.3649    2.7289 O.3       1 <0>        -0.2879 
      22 C15        0.2752   -0.5546    1.7645 C.3       1 <0>         0.2651 
      23 O6        -0.9941   -0.8575    2.3495 O.3       1 <0>        -0.2965 
      24 C16        0.6536   -1.7480    0.7391 C.3       1 <0>        -0.1489 
      25 C17       -0.3650   -1.8248   -0.4133 C.3       1 <0>        -0.1151 
      26 C18       -0.4536   -0.4745   -1.1486 C.3       1 <0>        -0.1246 
      27 C19       -0.8362    0.6579   -0.1775 C.3       1 <0>        -0.1168 
      28 C20        0.1655    0.7700    0.9867 C.3       1 <0>        -0.1129 
      29 H1         6.1577   -0.2767    9.3592 H         1 <0>         0.0628 
      30 H2         7.7307   -0.8934    8.8083 H         1 <0>         0.0629 
      31 H3         7.6536    0.5624    9.8245 H         1 <0>         0.0642 
      32 H4         6.5512    0.3184    6.9957 H         1 <0>         0.0966 
      33 H5         8.0594    1.1419    7.4491 H         1 <0>         0.0967 
      34 H6         6.4290    2.8866    6.2213 H         1 <0>         0.4129 
      35 H7         5.6349    4.6515    8.4214 H         1 <0>         0.1177 
      36 H8         5.4804    4.9956    6.6849 H         1 <0>         0.1174 
      37 H9         1.4124    3.7568    8.5882 H         1 <0>         0.1170 
      38 H10        2.2119    1.0179    9.6545 H         1 <0>         0.0784 
      39 H11        1.9127    2.4693   10.6353 H         1 <0>         0.0805 
      40 H12        0.5808    1.7194    9.7287 H         1 <0>         0.0845 
      41 H13       -0.3958    2.0164    7.7135 H         1 <0>         0.4164 
      42 H14       -2.1346    1.0397    6.3813 H         1 <0>         0.1427 
      43 H15       -2.8561   -0.1499    4.3169 H         1 <0>         0.1415 
      44 H16        1.9889    1.0486    5.0560 H         1 <0>         0.1512 
      45 H17        1.6522   -1.5938    0.3360 H         1 <0>         0.0736 
      46 H18        0.6624   -2.6887    1.2856 H         1 <0>         0.0900 
      47 H19       -1.3448   -2.0812   -0.0159 H         1 <0>         0.0715 
      48 H20       -0.0736   -2.6043   -1.1141 H         1 <0>         0.0728 
      49 H21        0.5083   -0.2460   -1.6028 H         1 <0>         0.0706 
      50 H22       -1.1922   -0.5366   -1.9450 H         1 <0>         0.0661 
      51 H23       -1.8281    0.4637    0.2253 H         1 <0>         0.0735 
      52 H24       -0.8741    1.6022   -0.7166 H         1 <0>         0.0762 
      53 H25        1.1471    1.0310    0.5970 H         1 <0>         0.0928 
      54 H26       -0.1477    1.5656    1.6596 H         1 <0>         0.0829 
@<TRIPOS>BOND
       1        1        2 1        
       2        1       29 1        
       3        1       30 1        
       4        1       31 1        
       5        2        3 1        
       6        2       32 1        
       7        2       33 1        
       8        3        4 2        
       9        3        5 am       
      10        5        6 1        
      11        5       34 1        
      12        6        7 1        
      13        6       35 1        
      14        6       36 1        
      15        7        8 2        
      16        7        9 1        
      17        9       10 1        
      18       10       11 1        
      19       10       12 1        
      20       10       37 1        
      21       11       38 1        
      22       11       39 1        
      23       11       40 1        
      24       12       13 2        
      25       12       14 am       
      26       14       15 1        
      27       14       41 1        
      28       15       20 ar       
      29       15       16 ar       
      30       16       17 ar       
      31       16       42 1        
      32       17       18 ar       
      33       17       43 1        
      34       18       23 1        
      35       18       19 ar       
      36       19       20 ar       
      37       19       21 1        
      38       20       44 1        
      39       21       22 1        
      40       22       28 1        
      41       22       23 1        
      42       22       24 1        
      43       24       25 1        
      44       24       45 1        
      45       24       46 1        
      46       25       26 1        
      47       25       47 1        
      48       25       48 1        
      49       26       27 1        
      50       26       49 1        
      51       26       50 1        
      52       27       28 1        
      53       27       51 1        
      54       27       52 1        
      55       28       53 1        
      56       28       54 1        

