#        1GCZ_R01_S0001_C0000_L00012_S0001_C0003_G0010_E0001.mol2
#        Tue Jun  6 14:13:05 2017
#        Descriptor:     14    33    26     8    10    13
#        Energy - RMSD - RMSD MassCentre:     -75.7114    999.9999    999.9999
#        Receptor:       1  Surface Point:     1  Conformer:     0
#        Ligand:        12  Surface Point:     1  Conformer:     3
#        BUDE Formal Charge: 0
#        ATOM Count: 54
#        Heavy ATOM Count: 28
@<TRIPOS>MOLECULE
ZINC61282011_1GCZ_R01_S0001_C0000_L00012_S0001_C0003_G0010_E0001
 54 56 0 0 0
SMALL
USER_CHARGES
@<TRIPOS>ATOM
       1 C1        -3.3086    3.9707    8.5986 C.3       1 <0>        -0.1394 
       2 C2        -2.4019    4.4034    9.7471 C.3       1 <0>        -0.1416 
       3 C3        -1.1024    4.9328    9.1893 C.2       1 <0>         0.5168 
       4 O1        -0.9200    4.9603    7.9732 O.2       1 <0>        -0.5327 
       5 N1        -0.1544    5.3698   10.0134 N.am      1 <0>        -0.7288 
       6 C4         1.1106    5.8852    9.4705 C.3       1 <0>         0.1281 
       7 C5         1.9758    4.7292    9.0287 C.2       1 <0>         0.4647 
       8 O2         3.0102    4.5092    9.5850 O.2       1 <0>        -0.5000 
       9 O3         1.5805    3.9438    8.0045 O.3       1 <0>        -0.3169 
      10 C6         2.4328    2.8611    7.6216 C.3       1 <0>         0.0729 
      11 C7         3.7928    3.4086    7.1979 C.3       1 <0>        -0.1704 
      12 C8         1.8093    2.1151    6.4662 C.2       1 <0>         0.5166 
      13 O4         2.4180    2.0067    5.4030 O.2       1 <0>        -0.4890 
      14 N2         0.6011    1.5750    6.5984 N.am      1 <0>        -0.6633 
      15 C9         0.0156    0.8756    5.5167 C.ar      1 <0>         0.1513 
      16 C10       -1.2363    0.2748    5.6947 C.ar      1 <0>        -0.1318 
      17 C11       -1.8627   -0.4294    4.6596 C.ar      1 <0>        -0.0823 
      18 C12       -1.1717   -0.4988    3.4441 C.ar      1 <0>         0.0206 
      19 C13        0.0772    0.1104    3.2746 C.ar      1 <0>         0.0545 
      20 C14        0.7156    0.8159    4.3015 C.ar      1 <0>        -0.1051 
      21 O5         0.5869   -0.1698    2.0086 O.3       1 <0>        -0.2879 
      22 C15       -0.6465   -0.5441    1.3894 C.3       1 <0>         0.2651 
      23 O6        -1.5838   -1.1273    2.2985 O.3       1 <0>        -0.2965 
      24 C16       -0.3301   -1.5807    0.1945 C.3       1 <0>        -0.1489 
      25 C17        0.5792   -0.9303   -0.8645 C.3       1 <0>        -0.1151 
      26 C18       -0.0605    0.3610   -1.4078 C.3       1 <0>        -0.1246 
      27 C19       -0.3364    1.3609   -0.2694 C.3       1 <0>        -0.1168 
      28 C20       -1.2468    0.7516    0.8129 C.3       1 <0>        -0.1129 
      29 H1        -2.8213    3.1810    8.0305 H         1 <0>         0.0628 
      30 H2        -4.2499    3.6014    9.0000 H         1 <0>         0.0629 
      31 H3        -3.4997    4.8214    7.9479 H         1 <0>         0.0642 
      32 H4        -2.1986    3.5501   10.3908 H         1 <0>         0.0966 
      33 H5        -2.8933    5.1843   10.3236 H         1 <0>         0.0967 
      34 H6        -0.3030    5.3477   11.0122 H         1 <0>         0.4129 
      35 H7         0.9045    6.5295    8.6184 H         1 <0>         0.1177 
      36 H8         1.6307    6.4539   10.2384 H         1 <0>         0.1174 
      37 H9         2.5601    2.1838    8.4633 H         1 <0>         0.1170 
      38 H10        3.6628    4.0954    6.3643 H         1 <0>         0.0784 
      39 H11        4.2478    3.9347    8.0345 H         1 <0>         0.0805 
      40 H12        4.4355    2.5852    6.8935 H         1 <0>         0.0845 
      41 H13        0.1013    1.6640    7.4714 H         1 <0>         0.4164 
      42 H14       -1.7338    0.3556    6.6498 H         1 <0>         0.1427 
      43 H15       -2.8287   -0.8931    4.7952 H         1 <0>         0.1415 
      44 H16        1.6790    1.2793    4.1480 H         1 <0>         0.1512 
      45 H17        0.1477   -2.4751    0.5884 H         1 <0>         0.0736 
      46 H18       -1.2688   -1.8853   -0.2635 H         1 <0>         0.0900 
      47 H19        0.7351   -1.6260   -1.6864 H         1 <0>         0.0715 
      48 H20        1.5502   -0.7025   -0.4299 H         1 <0>         0.0728 
      49 H21        0.6095    0.8198   -2.1319 H         1 <0>         0.0706 
      50 H22       -0.9916    0.1240   -1.9183 H         1 <0>         0.0661 
      51 H23       -0.8171    2.2464   -0.6800 H         1 <0>         0.0735 
      52 H24        0.6053    1.6701    0.1795 H         1 <0>         0.0762 
      53 H25       -1.3792    1.4676    1.6209 H         1 <0>         0.0928 
      54 H26       -2.2268    0.5444    0.3880 H         1 <0>         0.0829 
@<TRIPOS>BOND
       1        1        2 1        
       2        1       29 1        
       3        1       30 1        
       4        1       31 1        
       5        2        3 1        
       6        2       32 1        
       7        2       33 1        
       8        3        4 2        
       9        3        5 am       
      10        5        6 1        
      11        5       34 1        
      12        6        7 1        
      13        6       35 1        
      14        6       36 1        
      15        7        8 2        
      16        7        9 1        
      17        9       10 1        
      18       10       11 1        
      19       10       12 1        
      20       10       37 1        
      21       11       38 1        
      22       11       39 1        
      23       11       40 1        
      24       12       13 2        
      25       12       14 am       
      26       14       15 1        
      27       14       41 1        
      28       15       20 ar       
      29       15       16 ar       
      30       16       17 ar       
      31       16       42 1        
      32       17       18 ar       
      33       17       43 1        
      34       18       23 1        
      35       18       19 ar       
      36       19       20 ar       
      37       19       21 1        
      38       20       44 1        
      39       21       22 1        
      40       22       28 1        
      41       22       23 1        
      42       22       24 1        
      43       24       25 1        
      44       24       45 1        
      45       24       46 1        
      46       25       26 1        
      47       25       47 1        
      48       25       48 1        
      49       26       27 1        
      50       26       49 1        
      51       26       50 1        
      52       27       28 1        
      53       27       51 1        
      54       27       52 1        
      55       28       53 1        
      56       28       54 1        

