#        1GCZ_R01_S0001_C0000_L00012_S0001_C0004_G0010_E0001.mol2
#        Tue Jun  6 09:58:39 2017
#        Descriptor:     17    30    20     8     9    11
#        Energy - RMSD - RMSD MassCentre:     -73.9044    999.9999    999.9999
#        Receptor:       1  Surface Point:     1  Conformer:     0
#        Ligand:        12  Surface Point:     1  Conformer:     4
#        BUDE Formal Charge: 0
#        ATOM Count: 54
#        Heavy ATOM Count: 28
@<TRIPOS>MOLECULE
ZINC61282011_1GCZ_R01_S0001_C0000_L00012_S0001_C0004_G0010_E0001
 54 56 0 0 0
SMALL
USER_CHARGES
@<TRIPOS>ATOM
       1 C1        -0.1555    5.1833    5.9016 C.3       1 <0>        -0.1394 
       2 C2        -0.3543    4.7312    7.3455 C.3       1 <0>        -0.1416 
       3 C3         0.4374    3.4689    7.5903 C.2       1 <0>         0.5168 
       4 O1         1.1043    2.9745    6.6827 O.2       1 <0>        -0.5327 
       5 N1         0.4136    2.8912    8.7880 N.am      1 <0>        -0.7288 
       6 C4         1.1841    1.6624    9.0263 C.3       1 <0>         0.1281 
       7 C5         0.4641    0.4894    8.4054 C.2       1 <0>         0.4647 
       8 O2         0.0246   -0.3784    9.0993 O.2       1 <0>        -0.5000 
       9 O3         0.3168    0.4210    7.0652 O.3       1 <0>        -0.3169 
      10 C6        -0.3721   -0.7087    6.5229 C.3       1 <0>         0.0729 
      11 C7         0.3669   -1.9880    6.9052 C.3       1 <0>        -0.1704 
      12 C8        -0.4257   -0.5898    5.0185 C.2       1 <0>         0.5166 
      13 O4         0.0616   -1.4720    4.3134 O.2       1 <0>        -0.4890 
      14 N2        -1.0002    0.4693    4.4556 N.am      1 <0>        -0.6633 
      15 C9        -1.0513    0.5821    3.0461 C.ar      1 <0>         0.1513 
      16 C10       -1.6612    1.7060    2.4766 C.ar      1 <0>        -0.1318 
      17 C11       -1.7403    1.8701    1.0885 C.ar      1 <0>        -0.0823 
      18 C12       -1.1787    0.8536    0.3066 C.ar      1 <0>         0.0206 
      19 C13       -0.5658   -0.2637    0.8861 C.ar      1 <0>         0.0545 
      20 C14       -0.4815   -0.4410    2.2722 C.ar      1 <0>        -0.1051 
      21 O5        -0.1602   -1.1610   -0.0993 O.3       1 <0>        -0.2879 
      22 C15       -0.1688   -0.2474   -1.1991 C.3       1 <0>         0.2651 
      23 O6        -1.1358    0.7971   -1.0616 O.3       1 <0>        -0.2965 
      24 C16       -0.4609   -1.0231   -2.5890 C.3       1 <0>        -0.1489 
      25 C17       -0.2774   -0.0801   -3.7926 C.3       1 <0>        -0.1151 
      26 C18        1.1356    0.5323   -3.7902 C.3       1 <0>        -0.1246 
      27 C19        1.4059    1.2901   -2.4770 C.3       1 <0>        -0.1168 
      28 C20        1.2386    0.3758   -1.2493 C.3       1 <0>        -0.1129 
      29 H1        -0.5120    4.4076    5.2271 H         1 <0>         0.0628 
      30 H2        -0.7154    6.1000    5.7290 H         1 <0>         0.0629 
      31 H3         0.9021    5.3639    5.7212 H         1 <0>         0.0642 
      32 H4        -1.4100    4.5367    7.5231 H         1 <0>         0.0966 
      33 H5        -0.0099    5.5113    8.0212 H         1 <0>         0.0967 
      34 H6        -0.1337    3.2963    9.5340 H         1 <0>         0.4129 
      35 H7         2.1709    1.7598    8.5786 H         1 <0>         0.1177 
      36 H8         1.2858    1.4992   10.0972 H         1 <0>         0.1174 
      37 H9        -1.3845   -0.7417    6.9197 H         1 <0>         0.1170 
      38 H10        1.3831   -1.9483    6.5186 H         1 <0>         0.0784 
      39 H11        0.3939   -2.0803    7.9889 H         1 <0>         0.0805 
      40 H12       -0.1504   -2.8456    6.4802 H         1 <0>         0.0845 
      41 H13       -1.4003    1.1936    5.0346 H         1 <0>         0.4164 
      42 H14       -2.0799    2.4666    3.1190 H         1 <0>         0.1427 
      43 H15       -2.2102    2.7368    0.6476 H         1 <0>         0.1415 
      44 H16       -0.0027   -1.3106    2.6976 H         1 <0>         0.1512 
      45 H17        0.2043   -1.8781   -2.6885 H         1 <0>         0.0736 
      46 H18       -1.4807   -1.4016   -2.5703 H         1 <0>         0.0900 
      47 H19       -1.0142    0.7190   -3.7438 H         1 <0>         0.0715 
      48 H20       -0.4374   -0.6268   -4.7195 H         1 <0>         0.0728 
      49 H21        1.8733   -0.2594   -3.9043 H         1 <0>         0.0706 
      50 H22        1.2435    1.2126   -4.6323 H         1 <0>         0.0661 
      51 H23        0.7114    2.1238   -2.3958 H         1 <0>         0.0735 
      52 H24        2.4149    1.6968   -2.4927 H         1 <0>         0.0762 
      53 H25        1.9756   -0.4234   -1.2888 H         1 <0>         0.0928 
      54 H26        1.4183    0.9496   -0.3424 H         1 <0>         0.0829 
@<TRIPOS>BOND
       1        1        2 1        
       2        1       29 1        
       3        1       30 1        
       4        1       31 1        
       5        2        3 1        
       6        2       32 1        
       7        2       33 1        
       8        3        4 2        
       9        3        5 am       
      10        5        6 1        
      11        5       34 1        
      12        6        7 1        
      13        6       35 1        
      14        6       36 1        
      15        7        8 2        
      16        7        9 1        
      17        9       10 1        
      18       10       11 1        
      19       10       12 1        
      20       10       37 1        
      21       11       38 1        
      22       11       39 1        
      23       11       40 1        
      24       12       13 2        
      25       12       14 am       
      26       14       15 1        
      27       14       41 1        
      28       15       20 ar       
      29       15       16 ar       
      30       16       17 ar       
      31       16       42 1        
      32       17       18 ar       
      33       17       43 1        
      34       18       23 1        
      35       18       19 ar       
      36       19       20 ar       
      37       19       21 1        
      38       20       44 1        
      39       21       22 1        
      40       22       28 1        
      41       22       23 1        
      42       22       24 1        
      43       24       25 1        
      44       24       45 1        
      45       24       46 1        
      46       25       26 1        
      47       25       47 1        
      48       25       48 1        
      49       26       27 1        
      50       26       49 1        
      51       26       50 1        
      52       27       28 1        
      53       27       51 1        
      54       27       52 1        
      55       28       53 1        
      56       28       54 1        

