#        1GCZ_R01_S0001_C0000_L00012_S0001_C0004_G0010_E0001.mol2
#        Tue Jun  6 14:13:07 2017
#        Descriptor:     18    30    21     8     9    11
#        Energy - RMSD - RMSD MassCentre:     -69.9415    999.9999    999.9999
#        Receptor:       1  Surface Point:     1  Conformer:     0
#        Ligand:        12  Surface Point:     1  Conformer:     4
#        BUDE Formal Charge: 0
#        ATOM Count: 54
#        Heavy ATOM Count: 28
@<TRIPOS>MOLECULE
ZINC61282011_1GCZ_R01_S0001_C0000_L00012_S0001_C0004_G0010_E0001
 54 56 0 0 0
SMALL
USER_CHARGES
@<TRIPOS>ATOM
       1 C1        -0.3559    5.3930    5.5531 C.3       1 <0>        -0.1394 
       2 C2        -0.5991    5.0508    7.0202 C.3       1 <0>        -0.1416 
       3 C3         0.2100    3.8316    7.3927 C.2       1 <0>         0.5168 
       4 O1         0.9213    3.2841    6.5517 O.2       1 <0>        -0.5327 
       5 N1         0.1537    3.3493    8.6308 N.am      1 <0>        -0.7288 
       6 C4         0.9413    2.1624    8.9934 C.3       1 <0>         0.1281 
       7 C5         0.2709    0.9268    8.4420 C.2       1 <0>         0.4647 
       8 O2        -0.1754    0.1055    9.1864 O.2       1 <0>        -0.5000 
       9 O3         0.1758    0.7498    7.1071 O.3       1 <0>        -0.3169 
      10 C6        -0.4674   -0.4356    6.6318 C.3       1 <0>         0.0729 
      11 C7         0.2844   -1.6623    7.1406 C.3       1 <0>        -0.1704 
      12 C8        -0.4668   -0.4366    5.1217 C.2       1 <0>         0.5166 
      13 O4         0.0658   -1.3590    4.5067 O.2       1 <0>        -0.4890 
      14 N2        -1.0426    0.5607    4.4563 N.am      1 <0>        -0.6633 
      15 C9        -1.0429    0.5611    3.0414 C.ar      1 <0>         0.1513 
      16 C10       -1.6553    1.6215    2.3629 C.ar      1 <0>        -0.1318 
      17 C11       -1.6856    1.6741    0.9643 C.ar      1 <0>        -0.0823 
      18 C12       -1.0728    0.6136    0.2862 C.ar      1 <0>         0.0206 
      19 C13       -0.4580   -0.4392    0.9741 C.ar      1 <0>         0.0545 
      20 C14       -0.4222   -0.5052    2.3720 C.ar      1 <0>        -0.1051 
      21 O5         0.0039   -1.4009    0.0782 O.3       1 <0>        -0.2879 
      22 C15        0.0169   -0.5769   -1.0902 C.3       1 <0>         0.2651 
      23 O6        -0.9772    0.4510   -1.0708 O.3       1 <0>        -0.2965 
      24 C16       -0.2056   -1.4662   -2.4238 C.3       1 <0>        -0.1489 
      25 C17        0.0025   -0.6164   -3.6910 C.3       1 <0>        -0.1151 
      26 C18        1.4008    0.0290   -3.6865 C.3       1 <0>        -0.1246 
      27 C19        1.6048    0.8940   -2.4288 C.3       1 <0>        -0.1168 
      28 C20        1.4113    0.0750   -1.1392 C.3       1 <0>        -0.1129 
      29 H1        -0.6697    4.5582    4.9299 H         1 <0>         0.0628 
      30 H2        -0.9288    6.2792    5.2884 H         1 <0>         0.0629 
      31 H3         0.7035    5.5849    5.3970 H         1 <0>         0.0642 
      32 H4        -1.6563    4.8449    7.1748 H         1 <0>         0.0966 
      33 H5        -0.2975    5.8898    7.6438 H         1 <0>         0.0967 
      34 H6        -0.4301    3.7980    9.3222 H         1 <0>         0.4129 
      35 H7         1.9419    2.2486    8.5750 H         1 <0>         0.1177 
      36 H8         1.0060    2.0862   10.0767 H         1 <0>         0.1174 
      37 H9        -1.4931   -0.4624    6.9933 H         1 <0>         0.1170 
      38 H10        1.3133   -1.6281    6.7887 H         1 <0>         0.0784 
      39 H11        0.2725   -1.6686    8.2284 H         1 <0>         0.0805 
      40 H12       -0.1977   -2.5631    6.7667 H         1 <0>         0.0845 
      41 H13       -1.4799    1.3181    4.9612 H         1 <0>         0.4164 
      42 H14       -2.1143    2.4196    2.9275 H         1 <0>         0.1427 
      43 H15       -2.1572    2.4917    0.4394 H         1 <0>         0.1415 
      44 H16        0.0591   -1.3266    2.8819 H         1 <0>         0.1512 
      45 H17        0.4814   -2.3097   -2.4313 H         1 <0>         0.0736 
      46 H18       -1.2169   -1.8672   -2.4117 H         1 <0>         0.0900 
      47 H19       -0.7528    0.1656   -3.7323 H         1 <0>         0.0715 
      48 H20       -0.1104   -1.2379   -4.5768 H         1 <0>         0.0728 
      49 H21        2.1593   -0.7507   -3.7109 H         1 <0>         0.0706 
      50 H22        1.5255    0.6436   -4.5756 H         1 <0>         0.0661 
      51 H23        0.8898    1.7140   -2.4390 H         1 <0>         0.0735 
      52 H24        2.6046    1.3230   -2.4404 H         1 <0>         0.0762 
      53 H25        2.1665   -0.7063   -1.0887 H         1 <0>         0.0928 
      54 H26        1.5441    0.7224   -0.2749 H         1 <0>         0.0829 
@<TRIPOS>BOND
       1        1        2 1        
       2        1       29 1        
       3        1       30 1        
       4        1       31 1        
       5        2        3 1        
       6        2       32 1        
       7        2       33 1        
       8        3        4 2        
       9        3        5 am       
      10        5        6 1        
      11        5       34 1        
      12        6        7 1        
      13        6       35 1        
      14        6       36 1        
      15        7        8 2        
      16        7        9 1        
      17        9       10 1        
      18       10       11 1        
      19       10       12 1        
      20       10       37 1        
      21       11       38 1        
      22       11       39 1        
      23       11       40 1        
      24       12       13 2        
      25       12       14 am       
      26       14       15 1        
      27       14       41 1        
      28       15       20 ar       
      29       15       16 ar       
      30       16       17 ar       
      31       16       42 1        
      32       17       18 ar       
      33       17       43 1        
      34       18       23 1        
      35       18       19 ar       
      36       19       20 ar       
      37       19       21 1        
      38       20       44 1        
      39       21       22 1        
      40       22       28 1        
      41       22       23 1        
      42       22       24 1        
      43       24       25 1        
      44       24       45 1        
      45       24       46 1        
      46       25       26 1        
      47       25       47 1        
      48       25       48 1        
      49       26       27 1        
      50       26       49 1        
      51       26       50 1        
      52       27       28 1        
      53       27       51 1        
      54       27       52 1        
      55       28       53 1        
      56       28       54 1        

