#        1GCZ_R01_S0001_C0000_L00012_S0001_C0005_G0010_E0001.mol2
#        Tue Jun  6 09:58:40 2017
#        Descriptor:     16    31    20     9     7    10
#        Energy - RMSD - RMSD MassCentre:     -83.7954    999.9999    999.9999
#        Receptor:       1  Surface Point:     1  Conformer:     0
#        Ligand:        12  Surface Point:     1  Conformer:     5
#        BUDE Formal Charge: 0
#        ATOM Count: 54
#        Heavy ATOM Count: 28
@<TRIPOS>MOLECULE
ZINC61282011_1GCZ_R01_S0001_C0000_L00012_S0001_C0005_G0010_E0001
 54 56 0 0 0
SMALL
USER_CHARGES
@<TRIPOS>ATOM
       1 C1         1.4195   -6.4701    5.7324 C.3       1 <0>        -0.1394 
       2 C2         2.4770   -5.8223    4.8433 C.3       1 <0>        -0.1416 
       3 C3         3.0082   -4.5800    5.5178 C.2       1 <0>         0.5168 
       4 O1         2.5745   -4.2437    6.6185 O.2       1 <0>        -0.5327 
       5 N1         3.9456   -3.8491    4.9212 N.am      1 <0>        -0.7288 
       6 C4         4.4626   -2.6398    5.5777 C.3       1 <0>         0.1281 
       7 C5         3.4541   -1.5242    5.4421 C.2       1 <0>         0.4647 
       8 O2         3.7204   -0.5516    4.8011 O.2       1 <0>        -0.5000 
       9 O3         2.2507   -1.6257    6.0455 O.3       1 <0>        -0.3169 
      10 C6         1.3284   -0.5443    5.8887 C.3       1 <0>         0.0729 
      11 C7         0.0696   -0.8258    6.7041 C.3       1 <0>        -0.1704 
      12 C8         0.9616   -0.4041    4.4306 C.2       1 <0>         0.5166 
      13 O4         1.4165   -1.1918    3.6027 O.2       1 <0>        -0.4890 
      14 N2         0.1460    0.5717    4.0414 N.am      1 <0>        -0.6633 
      15 C9        -0.1987    0.7043    2.6755 C.ar      1 <0>         0.1513 
      16 C10       -1.0962    1.7095    2.2963 C.ar      1 <0>        -0.1318 
      17 C11       -1.4728    1.8868    0.9597 C.ar      1 <0>        -0.0823 
      18 C12       -0.9051    1.0083    0.0292 C.ar      1 <0>         0.0206 
      19 C13       -0.0040    0.0101    0.4180 C.ar      1 <0>         0.0545 
      20 C14        0.3797   -0.1794    1.7509 C.ar      1 <0>        -0.1051 
      21 O5         0.3525   -0.7757   -0.6759 O.3       1 <0>        -0.2879 
      22 C15       -0.0315    0.1451   -1.7003 C.3       1 <0>         0.2651 
      23 O6        -1.1213    0.9909   -1.3236 O.3       1 <0>        -0.2965 
      24 C16       -0.4060   -0.6563   -2.9782 C.3       1 <0>        -0.1489 
      25 C17       -0.0037    0.0772   -4.2711 C.3       1 <0>        -0.1151 
      26 C18       -0.1057    1.6022   -4.0826 C.3       1 <0>        -0.1246 
      27 C19        0.9088    2.0973   -3.0350 C.3       1 <0>        -0.1168 
      28 C20        1.2069    1.0171   -1.9788 C.3       1 <0>        -0.1129 
      29 H1         0.5980   -5.7730    5.8845 H         1 <0>         0.0628 
      30 H2         1.0463   -7.3723    5.2525 H         1 <0>         0.0629 
      31 H3         1.8615   -6.7258    6.6931 H         1 <0>         0.0642 
      32 H4         2.0326   -5.5533    3.8873 H         1 <0>         0.0966 
      33 H5         3.2934   -6.5228    4.6803 H         1 <0>         0.0967 
      34 H6         4.3025   -4.1244    4.0173 H         1 <0>         0.4129 
      35 H7         4.6361   -2.8447    6.6321 H         1 <0>         0.1177 
      36 H8         5.3972   -2.3421    5.1071 H         1 <0>         0.1174 
      37 H9         1.7878    0.3785    6.2367 H         1 <0>         0.1170 
      38 H10       -0.3820   -1.7552    6.3636 H         1 <0>         0.0784 
      39 H11        0.3320   -0.9135    7.7563 H         1 <0>         0.0805 
      40 H12       -0.6371   -0.0090    6.5728 H         1 <0>         0.0845 
      41 H13       -0.2275    1.2184    4.7212 H         1 <0>         0.4164 
      42 H14       -1.5083    2.3659    3.0485 H         1 <0>         0.1427 
      43 H15       -2.1649    2.6621    0.6654 H         1 <0>         0.1415 
      44 H16        1.0777   -0.9555    2.0280 H         1 <0>         0.1512 
      45 H17        0.0744   -1.6318   -2.9456 H         1 <0>         0.0736 
      46 H18       -1.4814   -0.8201   -2.9675 H         1 <0>         0.0900 
      47 H19       -0.6617   -0.2282   -5.0819 H         1 <0>         0.0715 
      48 H20        1.0141   -0.1898   -4.5473 H         1 <0>         0.0728 
      49 H21        0.0892    2.0981   -5.0312 H         1 <0>         0.0706 
      50 H22       -1.1129    1.8677   -3.7682 H         1 <0>         0.0661 
      51 H23        0.5083    2.9785   -2.5379 H         1 <0>         0.0735 
      52 H24        1.8332    2.3853   -3.5314 H         1 <0>         0.0762 
      53 H25        2.0144    0.3786   -2.3306 H         1 <0>         0.0928 
      54 H26        1.5360    1.4921   -1.0569 H         1 <0>         0.0829 
@<TRIPOS>BOND
       1        1        2 1        
       2        1       29 1        
       3        1       30 1        
       4        1       31 1        
       5        2        3 1        
       6        2       32 1        
       7        2       33 1        
       8        3        4 2        
       9        3        5 am       
      10        5        6 1        
      11        5       34 1        
      12        6        7 1        
      13        6       35 1        
      14        6       36 1        
      15        7        8 2        
      16        7        9 1        
      17        9       10 1        
      18       10       11 1        
      19       10       12 1        
      20       10       37 1        
      21       11       38 1        
      22       11       39 1        
      23       11       40 1        
      24       12       13 2        
      25       12       14 am       
      26       14       15 1        
      27       14       41 1        
      28       15       20 ar       
      29       15       16 ar       
      30       16       17 ar       
      31       16       42 1        
      32       17       18 ar       
      33       17       43 1        
      34       18       23 1        
      35       18       19 ar       
      36       19       20 ar       
      37       19       21 1        
      38       20       44 1        
      39       21       22 1        
      40       22       28 1        
      41       22       23 1        
      42       22       24 1        
      43       24       25 1        
      44       24       45 1        
      45       24       46 1        
      46       25       26 1        
      47       25       47 1        
      48       25       48 1        
      49       26       27 1        
      50       26       49 1        
      51       26       50 1        
      52       27       28 1        
      53       27       51 1        
      54       27       52 1        
      55       28       53 1        
      56       28       54 1        

