#        1GCZ_R01_S0001_C0000_L00012_S0001_C0005_G0010_E0001.mol2
#        Tue Jun  6 14:13:09 2017
#        Descriptor:     34    22     7    10     9    12
#        Energy - RMSD - RMSD MassCentre:     -71.8977    999.9999    999.9999
#        Receptor:       1  Surface Point:     1  Conformer:     0
#        Ligand:        12  Surface Point:     1  Conformer:     5
#        BUDE Formal Charge: 0
#        ATOM Count: 54
#        Heavy ATOM Count: 28
@<TRIPOS>MOLECULE
ZINC61282011_1GCZ_R01_S0001_C0000_L00012_S0001_C0005_G0010_E0001
 54 56 0 0 0
SMALL
USER_CHARGES
@<TRIPOS>ATOM
       1 C1         6.6893   -1.5647    7.9321 C.3       1 <0>        -0.1394 
       2 C2         6.8137   -0.5005    6.8455 C.3       1 <0>        -0.1416 
       3 C3         6.2388    0.8017    7.3492 C.2       1 <0>         0.5168 
       4 O1         5.7693    0.8695    8.4840 O.2       1 <0>        -0.5327 
       5 N1         6.2401    1.8761    6.5654 N.am      1 <0>        -0.7288 
       6 C4         5.6804    3.1438    7.0557 C.3       1 <0>         0.1281 
       7 C5         4.1724    3.0743    7.0205 C.2       1 <0>         0.4647 
       8 O2         3.5574    3.7905    6.2880 O.2       1 <0>        -0.5000 
       9 O3         3.5186    2.2023    7.8171 O.3       1 <0>        -0.3169 
      10 C6         2.0905    2.1724    7.7490 C.3       1 <0>         0.0729 
      11 C7         1.5521    1.1785    8.7741 C.3       1 <0>        -0.1704 
      12 C8         1.6623    1.7479    6.3646 C.2       1 <0>         0.5166 
      13 O4         2.5081    1.4527    5.5218 O.2       1 <0>        -0.4890 
      14 N2         0.3697    1.6930    6.0564 N.am      1 <0>        -0.6633 
      15 C9        -0.0331    1.2952    4.7596 C.ar      1 <0>         0.1513 
      16 C10       -1.4000    1.1991    4.4729 C.ar      1 <0>        -0.1318 
      17 C11       -1.8558    0.8107    3.2075 C.ar      1 <0>        -0.0823 
      18 C12       -0.8744    0.5257    2.2508 C.ar      1 <0>         0.0206 
      19 C13        0.4900    0.6305    2.5458 C.ar      1 <0>         0.0545 
      20 C14        0.9594    1.0160    3.8072 C.ar      1 <0>        -0.1051 
      21 O5         1.2558    0.2192    1.4571 O.3       1 <0>        -0.2879 
      22 C15        0.2430    0.3503    0.4562 C.3       1 <0>         0.2651 
      23 O6        -1.0793    0.1311    0.9548 O.3       1 <0>        -0.2965 
      24 C16        0.5435   -0.6512   -0.6936 C.3       1 <0>        -0.1489 
      25 C17        0.1602   -0.0916   -2.0761 C.3       1 <0>        -0.1151 
      26 C18       -1.0646    0.8352   -1.9643 C.3       1 <0>        -0.1246 
      27 C19       -0.7354    2.0855   -1.1275 C.3       1 <0>        -0.1168 
      28 C20        0.3469    1.7932   -0.0719 C.3       1 <0>        -0.1129 
      29 H1         5.6391   -1.7135    8.1745 H         1 <0>         0.0628 
      30 H2         7.1155   -2.4993    7.5739 H         1 <0>         0.0629 
      31 H3         7.2246   -1.2383    8.8213 H         1 <0>         0.0642 
      32 H4         6.2669   -0.8194    5.9606 H         1 <0>         0.0966 
      33 H5         7.8626   -0.3596    6.5933 H         1 <0>         0.0967 
      34 H6         6.6254    1.8216    5.6333 H         1 <0>         0.4129 
      35 H7         6.0110    3.3157    8.0779 H         1 <0>         0.1177 
      36 H8         6.0200    3.9603    6.4221 H         1 <0>         0.1174 
      37 H9         1.6957    3.1636    7.9619 H         1 <0>         0.1170 
      38 H10        1.9574    0.1902    8.5676 H         1 <0>         0.0784 
      39 H11        1.8493    1.4917    9.7727 H         1 <0>         0.0805 
      40 H12        0.4663    1.1463    8.7116 H         1 <0>         0.0845 
      41 H13       -0.3248    1.9353    6.7484 H         1 <0>         0.4164 
      42 H14       -2.1221    1.4304    5.2419 H         1 <0>         0.1427 
      43 H15       -2.9100    0.7363    2.9846 H         1 <0>         0.1415 
      44 H16        2.0170    1.0915    4.0123 H         1 <0>         0.1512 
      45 H17        1.6010   -0.9067   -0.6819 H         1 <0>         0.0736 
      46 H18       -0.0161   -1.5634   -0.4978 H         1 <0>         0.0900 
      47 H19       -0.0732   -0.9140   -2.7490 H         1 <0>         0.0715 
      48 H20        0.9981    0.4591   -2.4983 H         1 <0>         0.0728 
      49 H21       -1.3773    1.1435   -2.9597 H         1 <0>         0.0706 
      50 H22       -1.8923    0.2978   -1.5061 H         1 <0>         0.0661 
      51 H23       -1.6379    2.4273   -0.6250 H         1 <0>         0.0735 
      52 H24       -0.3964    2.8840   -1.7844 H         1 <0>         0.0762 
      53 H25        1.3313    1.9363   -0.5122 H         1 <0>         0.0928 
      54 H26        0.2469    2.4943    0.7541 H         1 <0>         0.0829 
@<TRIPOS>BOND
       1        1        2 1        
       2        1       29 1        
       3        1       30 1        
       4        1       31 1        
       5        2        3 1        
       6        2       32 1        
       7        2       33 1        
       8        3        4 2        
       9        3        5 am       
      10        5        6 1        
      11        5       34 1        
      12        6        7 1        
      13        6       35 1        
      14        6       36 1        
      15        7        8 2        
      16        7        9 1        
      17        9       10 1        
      18       10       11 1        
      19       10       12 1        
      20       10       37 1        
      21       11       38 1        
      22       11       39 1        
      23       11       40 1        
      24       12       13 2        
      25       12       14 am       
      26       14       15 1        
      27       14       41 1        
      28       15       20 ar       
      29       15       16 ar       
      30       16       17 ar       
      31       16       42 1        
      32       17       18 ar       
      33       17       43 1        
      34       18       23 1        
      35       18       19 ar       
      36       19       20 ar       
      37       19       21 1        
      38       20       44 1        
      39       21       22 1        
      40       22       28 1        
      41       22       23 1        
      42       22       24 1        
      43       24       25 1        
      44       24       45 1        
      45       24       46 1        
      46       25       26 1        
      47       25       47 1        
      48       25       48 1        
      49       26       27 1        
      50       26       49 1        
      51       26       50 1        
      52       27       28 1        
      53       27       51 1        
      54       27       52 1        
      55       28       53 1        
      56       28       54 1        

