#        1GCZ_R01_S0001_C0000_L00003_S0001_C0017_G0010_E0001.mol2
#        Tue Jun  6 14:04:00 2017
#        Descriptor:     33     5    35    13     8    15
#        Energy - RMSD - RMSD MassCentre:     -56.3884    999.9999    999.9999
#        Receptor:       1  Surface Point:     1  Conformer:     0
#        Ligand:         3  Surface Point:     1  Conformer:    17
#        BUDE Formal Charge: 0
#        ATOM Count: 58
#        Heavy ATOM Count: 30
@<TRIPOS>MOLECULE
ZINC61580633_1GCZ_R01_S0001_C0000_L00003_S0001_C0017_G0010_E0001
 58 59 0 0 0
SMALL
USER_CHARGES
@<TRIPOS>ATOM
       1 C1        11.8120    1.0141    7.1729 C.3       1 <0>        -0.1532 
       2 C2        10.3839    0.6602    7.5775 C.3       1 <0>        -0.1224 
       3 C3         9.9961    1.4563    8.8228 C.3       1 <0>        -0.1198 
       4 C4         8.5660    1.1019    9.2279 C.3       1 <0>         0.0610 
       5 O1         7.6664    1.4893    8.1859 O.3       1 <0>        -0.3878 
       6 C5         6.3082    1.1811    8.5101 C.3       1 <0>         0.0487 
       7 C6         5.3998    1.6177    7.3617 C.3       1 <0>         0.1244 
       8 N1         5.3146    3.0850    7.3360 N.am      1 <0>        -0.7216 
       9 C7         4.5734    3.6915    6.4132 C.2       1 <0>         0.5161 
      10 O2         4.5014    4.9191    6.3905 O.2       1 <0>        -0.5151 
      11 C8         3.8197    2.8725    5.3928 C.3       1 <0>         0.0490 
      12 O3         2.7483    2.1783    6.0371 O.3       1 <0>        -0.3194 
      13 C9         1.7724    2.9132    6.6116 C.2       1 <0>         0.5417 
      14 O4         1.8214    4.1315    6.5714 O.2       1 <0>        -0.5337 
      15 C10        0.6427    2.2404    7.2906 C.2       1 <0>        -0.2559 
      16 C11       -0.4701    2.9478    7.9627 C.2       1 <0>        -0.0791 
      17 C12       -1.3518    2.1069    8.5082 C.2       1 <0>        -0.2585 
      18 S1        -0.9224    0.4087    8.2549 S.3       1 <0>         0.3028 
      19 C13        0.5277    0.9078    7.3713 C.2       1 <0>         0.0893 
      20 N2         1.4564    0.0611    6.8260 N.am      1 <0>        -0.6099 
      21 C14        1.3001   -1.2555    6.9312 C.2       1 <0>         0.5551 
      22 O5         0.3210   -1.7132    7.5184 O.2       1 <0>        -0.4939 
      23 C15        2.3043   -2.1689    6.3415 C.ar      1 <0>        -0.1466 
      24 C16        2.1019   -3.5474    6.4784 C.ar      1 <0>        -0.0772 
      25 C17        3.0531   -4.4598    6.0067 C.ar      1 <0>        -0.1241 
      26 C18        4.2305   -4.0097    5.3980 C.ar      1 <0>        -0.0446 
      27 C19        4.4108   -2.6339    5.2121 C.ar      1 <0>        -0.1261 
      28 C20        3.4435   -1.7259    5.6590 C.ar      1 <0>        -0.0460 
      29 C21        5.2724   -5.0077    4.9520 C.3       1 <0>        -0.0928 
      30 C22        6.2602   -5.2528    6.0889 C.3       1 <0>        -0.1485 
      31 H1        12.4920    0.7559    7.9820 H         1 <0>         0.0567 
      32 H2        11.8770    2.0810    6.9703 H         1 <0>         0.0554 
      33 H3        12.0834    0.4574    6.2785 H         1 <0>         0.0557 
      34 H4         9.7043    0.9064    6.7642 H         1 <0>         0.0632 
      35 H5        10.3207   -0.4042    7.7940 H         1 <0>         0.0635 
      36 H6        10.6744    1.2105    9.6369 H         1 <0>         0.0711 
      37 H7        10.0580    2.5209    8.6072 H         1 <0>         0.0704 
      38 H8         8.4900    0.0289    9.3913 H         1 <0>         0.0498 
      39 H9         8.3069    1.6284   10.1441 H         1 <0>         0.0505 
      40 H10        6.0227    1.7084    9.4180 H         1 <0>         0.0584 
      41 H11        6.2059    0.1091    8.6652 H         1 <0>         0.0702 
      42 H12        4.4056    1.1999    7.5061 H         1 <0>         0.0872 
      43 H13        5.8099    1.2622    6.4189 H         1 <0>         0.0805 
      44 H14        5.8188    3.6328    8.0185 H         1 <0>         0.4058 
      45 H15        3.4156    3.5299    4.6259 H         1 <0>         0.1008 
      46 H16        4.4944    2.1521    4.9351 H         1 <0>         0.0999 
      47 H17       -0.5464    4.0248    7.9863 H         1 <0>         0.1557 
      48 H18       -2.2340    2.4430    9.0326 H         1 <0>         0.1929 
      49 H19        2.2603    0.4368    6.3438 H         1 <0>         0.4317 
      50 H20        1.2053   -3.9133    6.9565 H         1 <0>         0.1287 
      51 H21        2.8832   -5.5211    6.1123 H         1 <0>         0.1326 
      52 H22        5.3039   -2.2838    4.7159 H         1 <0>         0.1342 
      53 H23        3.6088   -0.6824    5.4353 H         1 <0>         0.1410 
      54 H24        5.8035   -4.6146    4.0876 H         1 <0>         0.0777 
      55 H25        4.7863   -5.9436    4.6848 H         1 <0>         0.0771 
      56 H26        5.7298   -5.6576    6.9483 H         1 <0>         0.0623 
      57 H27        6.7353   -4.3136    6.3646 H         1 <0>         0.0572 
      58 H28        7.0185   -5.9616    5.7630 H         1 <0>         0.0578 
@<TRIPOS>BOND
       1        1        2 1        
       2        1       31 1        
       3        1       32 1        
       4        1       33 1        
       5        2        3 1        
       6        2       34 1        
       7        2       35 1        
       8        3        4 1        
       9        3       36 1        
      10        3       37 1        
      11        4        5 1        
      12        4       38 1        
      13        4       39 1        
      14        5        6 1        
      15        6        7 1        
      16        6       40 1        
      17        6       41 1        
      18        7        8 1        
      19        7       42 1        
      20        7       43 1        
      21        8        9 am       
      22        8       44 1        
      23        9       10 2        
      24        9       11 1        
      25       11       12 1        
      26       11       45 1        
      27       11       46 1        
      28       12       13 1        
      29       13       14 2        
      30       13       15 1        
      31       15       19 2        
      32       15       16 1        
      33       16       17 2        
      34       16       47 1        
      35       17       18 1        
      36       17       48 1        
      37       18       19 1        
      38       19       20 1        
      39       20       21 am       
      40       20       49 1        
      41       21       22 2        
      42       21       23 1        
      43       23       28 ar       
      44       23       24 ar       
      45       24       25 ar       
      46       24       50 1        
      47       25       26 ar       
      48       25       51 1        
      49       26       27 ar       
      50       26       29 1        
      51       27       28 ar       
      52       27       52 1        
      53       28       53 1        
      54       29       30 1        
      55       29       54 1        
      56       29       55 1        
      57       30       56 1        
      58       30       57 1        
      59       30       58 1        

