#        1GCZ_R01_S0001_C0000_L00001_S0001_C0003_G0010_E0001.mol2
#        Tue Jun  6 14:03:12 2017
#        Descriptor:     16    25    26     8     8     6
#        Energy - RMSD - RMSD MassCentre:     -88.1503    999.9999    999.9999
#        Receptor:       1  Surface Point:     1  Conformer:     0
#        Ligand:         1  Surface Point:     1  Conformer:     3
#        BUDE Formal Charge: 0
#        ATOM Count: 27
#        Heavy ATOM Count: 17
@<TRIPOS>MOLECULE
pdb1gcz_ligA.pdb_1GCZ_R01_S0001_C0000_L00001_S0001_C0003_G0010_E0001
27 28 1 0 0
SMALL
GASTEIGER
@<TRIPOS>ATOM
       1 C3         0.3139    0.6104    4.9678 C.3       1 YZ9900      0.0513 
       2 C11       -0.7700   -0.3229    4.4362 C.3       1 YZ9900      0.2089 
       3 O1        -0.8188    1.6237    2.6697 O.2       1 YZ9900     -0.2447 
       4 O2        -0.5690   -0.5371    3.0366 O.3       1 YZ9900     -0.4453 
       5 C6        -0.2881    2.2986   -2.4051 C.ar      1 YZ9900      0.0063 
       6 C5        -0.4538    1.4122   -0.0697 C.ar      1 YZ9900      0.0160 
       7 C4         0.1825   -0.2646   -3.3900 C.ar      1 YZ9900      0.0796 
       8 O3         0.0331   -1.1730   -1.1625 O.2       1 YZ9900     -0.4208 
       9 C2        -0.2486    1.2145   -1.5220 C.ar      1 YZ9900      0.0353 
      10 C1        -0.0121   -0.0735   -2.0168 C.ar      1 YZ9900      0.1519 
      11 C7        -0.1607   -0.9817    0.2036 C.ar      1 YZ9900      0.3521 
      12 C12       -0.6150    0.5360    2.2187 C.2       1 YZ9900      0.3476 
      13 O4         0.3402    0.5801   -5.6136 O.3       1 YZ9900     -0.2865 
      14 O5        -0.1171   -1.9578    0.9342 O.2       1 YZ9900     -0.2442 
      15 C10       -0.0928    2.1020   -3.7774 C.ar      1 YZ9900      0.0422 
      16 C9        -0.4130    0.3651    0.7627 C.ar      1 YZ9900      0.1515 
      17 C8         0.1440    0.8165   -4.2785 C.ar      1 YZ9900      0.1988 
      18 H31        0.2527    1.5669    4.4526 H         1 YZ9900      0.0000 
      19 H32        0.1689    0.7628    6.0352 H         1 YZ9900      0.0000 
      20 H33        1.2916    0.1660    4.7938 H         1 YZ9900      0.0000 
      21 H112      -1.7475    0.1269    4.5968 H         1 YZ9900      0.0000 
      22 H113      -0.7179   -1.2754    4.9593 H         1 YZ9900      0.0000 
      23 H6        -0.4700    3.2951   -2.0306 H         1 YZ9900      0.0000 
      24 H5        -0.6355    2.4098    0.3022 H         1 YZ9900      0.0000 
      25 H4         0.3646   -1.2602   -3.7671 H         1 YZ9900      0.0000 
      26 HO4        0.5069   -0.3611   -5.7789 H         1 YZ9900      0.0000 
      27 H10       -0.1283    2.9557   -4.4379 H         1 YZ9900      0.0000 
@<TRIPOS>BOND
       1       13       17 1        
       2        7       17 ar       
       3        7       10 ar       
       4        8       10 ar       
       5        8       11 ar       
       6       14       11 2        
       7       17       15 ar       
       8       10        9 ar       
       9       11       16 ar       
      10        2        4 1        
      11        2        1 1        
      12       15        5 ar       
      13        9        5 ar       
      14        9        6 ar       
      15       16        6 ar       
      16       16       12 1        
      17        4       12 1        
      18       12        3 2        
      19       18        1 1        
      20       19        1 1        
      21       20        1 1        
      22       21        2 1        
      23       22        2 1        
      24       23        5 1        
      25       24        6 1        
      26       25        7 1        
      27       26       13 1        
      28       27       15 1        
@<TRIPOS>SUBSTRUCTURE
 1 YZ9900 10 RESIDUE 4 A YZ9900 0 ROOT

