#        1GCZ_R01_S0001_C0000_L00012_S0001_C0006_G0010_E0001.mol2
#        Tue Jun  6 09:58:40 2017
#        Descriptor:     34    22     5    10     8    12
#        Energy - RMSD - RMSD MassCentre:     -69.0340    999.9999    999.9999
#        Receptor:       1  Surface Point:     1  Conformer:     0
#        Ligand:        12  Surface Point:     1  Conformer:     6
#        BUDE Formal Charge: 0
#        ATOM Count: 54
#        Heavy ATOM Count: 28
@<TRIPOS>MOLECULE
ZINC61282011_1GCZ_R01_S0001_C0000_L00012_S0001_C0006_G0010_E0001
 54 56 0 0 0
SMALL
USER_CHARGES
@<TRIPOS>ATOM
       1 C1         5.3097   -3.9360    7.9600 C.3       1 <0>        -0.1394 
       2 C2         5.7905   -2.9786    6.8733 C.3       1 <0>        -0.1416 
       3 C3         5.6956   -1.5582    7.3771 C.2       1 <0>         0.5168 
       4 O1         5.2776   -1.3339    8.5119 O.2       1 <0>        -0.5327 
       5 N1         6.0644   -0.5490    6.5932 N.am      1 <0>        -0.7288 
       6 C4         5.9720    0.8336    7.0836 C.3       1 <0>         0.1281 
       7 C5         4.5311    1.2841    7.0483 C.2       1 <0>         0.4647 
       8 O2         4.1982    2.1674    6.3158 O.2       1 <0>        -0.5000 
       9 O3         3.6185    0.6883    7.8449 O.3       1 <0>        -0.3169 
      10 C6         2.2664    1.1486    7.7768 C.3       1 <0>         0.0729 
      11 C7         1.4205    0.3988    8.8019 C.3       1 <0>        -0.1704 
      12 C8         1.7187    0.8962    6.3924 C.2       1 <0>         0.5166 
      13 O4         2.4126    0.3295    5.5496 O.2       1 <0>        -0.4890 
      14 N2         0.4853    1.2867    6.0842 N.am      1 <0>        -0.6633 
      15 C9        -0.0292    1.0507    4.7874 C.ar      1 <0>         0.1513 
      16 C10       -1.3466    1.4278    4.5007 C.ar      1 <0>        -0.1318 
      17 C11       -1.9077    1.2187    3.2354 C.ar      1 <0>        -0.0823 
      18 C12       -1.0829    0.6153    2.2786 C.ar      1 <0>         0.0206 
      19 C13        0.2350    0.2471    2.5737 C.ar      1 <0>         0.0545 
      20 C14        0.8079    0.4488    3.8350 C.ar      1 <0>        -0.1051 
      21 O5         0.8139   -0.4013    1.4849 O.3       1 <0>        -0.2879 
      22 C15       -0.0929    0.0683    0.4841 C.3       1 <0>         0.2651 
      23 O6        -1.4105    0.3146    0.9826 O.3       1 <0>        -0.2965 
      24 C16       -0.1139   -1.0068   -0.6455 C.3       1 <0>        -0.1489 
      25 C17       -0.3550   -0.3549   -2.0197 C.3       1 <0>        -0.1151 
      26 C18        0.8422    0.5283   -2.4174 C.3       1 <0>        -0.1246 
      27 C19        1.5147    1.1383   -1.1735 C.3       1 <0>        -0.1168 
      28 C20        0.4982    1.3886   -0.0441 C.3       1 <0>        -0.1129 
      29 H1         4.2719   -3.7166    8.2024 H         1 <0>         0.0628 
      30 H2         5.3905   -4.9600    7.6017 H         1 <0>         0.0629 
      31 H3         5.9243   -3.8124    8.8491 H         1 <0>         0.0642 
      32 H4         5.1676   -3.0912    5.9884 H         1 <0>         0.0966 
      33 H5         6.8244   -3.2049    6.6211 H         1 <0>         0.0967 
      34 H6         6.4078   -0.7320    5.6611 H         1 <0>         0.4129 
      35 H7         6.3414    0.8821    8.1058 H         1 <0>         0.1177 
      36 H8         6.5704    1.4847    6.4499 H         1 <0>         0.1174 
      37 H9         2.2344    2.2151    7.9897 H         1 <0>         0.1170 
      38 H10        1.4633   -0.6685    8.5955 H         1 <0>         0.0784 
      39 H11        1.8069    0.5914    9.8006 H         1 <0>         0.0805 
      40 H12        0.3892    0.7399    8.7394 H         1 <0>         0.0845 
      41 H13       -0.0844    1.7519    6.7762 H         1 <0>         0.4164 
      42 H14       -1.9460    1.8922    5.2697 H         1 <0>         0.1427 
      43 H15       -2.9237    1.5094    3.0124 H         1 <0>         0.1415 
      44 H16        1.8276    0.1580    4.0401 H         1 <0>         0.1512 
      45 H17        0.8259   -1.5545   -0.6595 H         1 <0>         0.0736 
      46 H18       -0.9064   -1.7212   -0.4331 H         1 <0>         0.0900 
      47 H19       -1.2536    0.2569   -1.9791 H         1 <0>         0.0715 
      48 H20       -0.5079   -1.1246   -2.7733 H         1 <0>         0.0728 
      49 H21        1.5703   -0.0716   -2.9594 H         1 <0>         0.0706 
      50 H22        0.5082    1.3252   -3.0787 H         1 <0>         0.0661 
      51 H23        1.9816    2.0825   -1.4461 H         1 <0>         0.0735 
      52 H24        2.2962    0.4700   -0.8177 H         1 <0>         0.0762 
      53 H25        0.9884    1.9075    0.7769 H         1 <0>         0.0928 
      54 H26       -0.3019    2.0279   -0.4112 H         1 <0>         0.0829 
@<TRIPOS>BOND
       1        1        2 1        
       2        1       29 1        
       3        1       30 1        
       4        1       31 1        
       5        2        3 1        
       6        2       32 1        
       7        2       33 1        
       8        3        4 2        
       9        3        5 am       
      10        5        6 1        
      11        5       34 1        
      12        6        7 1        
      13        6       35 1        
      14        6       36 1        
      15        7        8 2        
      16        7        9 1        
      17        9       10 1        
      18       10       11 1        
      19       10       12 1        
      20       10       37 1        
      21       11       38 1        
      22       11       39 1        
      23       11       40 1        
      24       12       13 2        
      25       12       14 am       
      26       14       15 1        
      27       14       41 1        
      28       15       20 ar       
      29       15       16 ar       
      30       16       17 ar       
      31       16       42 1        
      32       17       18 ar       
      33       17       43 1        
      34       18       23 1        
      35       18       19 ar       
      36       19       20 ar       
      37       19       21 1        
      38       20       44 1        
      39       21       22 1        
      40       22       28 1        
      41       22       23 1        
      42       22       24 1        
      43       24       25 1        
      44       24       45 1        
      45       24       46 1        
      46       25       26 1        
      47       25       47 1        
      48       25       48 1        
      49       26       27 1        
      50       26       49 1        
      51       26       50 1        
      52       27       28 1        
      53       27       51 1        
      54       27       52 1        
      55       28       53 1        
      56       28       54 1        

