#        1GCZ_R01_S0001_C0000_L00012_S0001_C0006_G0010_E0001.mol2
#        Tue Jun  6 14:13:11 2017
#        Descriptor:     33    22     7    10     9    12
#        Energy - RMSD - RMSD MassCentre:     -78.7871    999.9999    999.9999
#        Receptor:       1  Surface Point:     1  Conformer:     0
#        Ligand:        12  Surface Point:     1  Conformer:     6
#        BUDE Formal Charge: 0
#        ATOM Count: 54
#        Heavy ATOM Count: 28
@<TRIPOS>MOLECULE
ZINC61282011_1GCZ_R01_S0001_C0000_L00012_S0001_C0006_G0010_E0001
 54 56 0 0 0
SMALL
USER_CHARGES
@<TRIPOS>ATOM
       1 C1         7.1775   -1.1900    7.2442 C.3       1 <0>        -0.1394 
       2 C2         7.0457   -0.0776    6.2079 C.3       1 <0>        -0.1416 
       3 C3         6.4016    1.1299    6.8460 C.2       1 <0>         0.5168 
       4 O1         6.0761    1.0998    8.0317 O.2       1 <0>        -0.5327 
       5 N1         6.1860    2.2268    6.1254 N.am      1 <0>        -0.7288 
       6 C4         5.5590    3.4022    6.7465 C.3       1 <0>         0.1281 
       7 C5         4.0753    3.1619    6.8925 C.2       1 <0>         0.4647 
       8 O2         3.2977    3.8307    6.2795 O.2       1 <0>        -0.5000 
       9 O3         3.6272    2.1908    7.7163 O.3       1 <0>        -0.3169 
      10 C6         2.2139    2.0003    7.8221 C.3       1 <0>         0.0729 
      11 C7         1.9220    0.9126    8.8518 C.3       1 <0>        -0.1704 
      12 C8         1.6613    1.5831    6.4801 C.2       1 <0>         0.5166 
      13 O4         2.4198    1.4193    5.5258 O.2       1 <0>        -0.4890 
      14 N2         0.3537    1.3925    6.3300 N.am      1 <0>        -0.6633 
      15 C9        -0.1656    1.0014    5.0733 C.ar      1 <0>         0.1513 
      16 C10       -1.5392    0.7605    4.9515 C.ar      1 <0>        -0.1318 
      17 C11       -2.1077    0.3714    3.7328 C.ar      1 <0>        -0.0823 
      18 C12       -1.2313    0.2377    2.6494 C.ar      1 <0>         0.0206 
      19 C13        0.1400    0.4866    2.7803 C.ar      1 <0>         0.0545 
      20 C14        0.7218    0.8744    3.9931 C.ar      1 <0>        -0.1051 
      21 O5         0.8009    0.2078    1.5859 O.3       1 <0>        -0.2879 
      22 C15       -0.3395    0.2605    0.7248 C.3       1 <0>         0.2651 
      23 O6        -1.5557   -0.1276    1.3693 O.3       1 <0>        -0.2965 
      24 C16       -0.0299   -0.6661   -0.4907 C.3       1 <0>        -0.1489 
      25 C17       -0.7060   -0.1385   -1.7698 C.3       1 <0>        -0.1151 
      26 C18       -0.0802    1.2014   -2.1996 C.3       1 <0>        -0.1246 
      27 C19        0.4084    1.9993   -0.9764 C.3       1 <0>        -0.1168 
      28 C20       -0.4614    1.7251    0.2645 C.3       1 <0>        -0.1129 
      29 H1         6.1892   -1.4673    7.6052 H         1 <0>         0.0628 
      30 H2         7.6535   -2.0552    6.7879 H         1 <0>         0.0629 
      31 H3         7.7831   -0.8389    8.0770 H         1 <0>         0.0642 
      32 H4         6.4285   -0.4227    5.3811 H         1 <0>         0.0966 
      33 H5         8.0323    0.1921    5.8370 H         1 <0>         0.0967 
      34 H6         6.4530    2.2526    5.1516 H         1 <0>         0.4129 
      35 H7         5.9966    3.5714    7.7281 H         1 <0>         0.1177 
      36 H8         5.7241    4.2760    6.1198 H         1 <0>         0.1174 
      37 H9         1.7441    2.9308    8.1335 H         1 <0>         0.1170 
      38 H10        2.4027   -0.0142    8.5456 H         1 <0>         0.0784 
      39 H11        2.3083    1.2191    9.8215 H         1 <0>         0.0805 
      40 H12        0.8471    0.7587    8.9210 H         1 <0>         0.0845 
      41 H13       -0.2691    1.5269    7.1136 H         1 <0>         0.4164 
      42 H14       -2.1782    0.8779    5.8142 H         1 <0>         0.1427 
      43 H15       -3.1674    0.1855    3.6370 H         1 <0>         0.1415 
      44 H16        1.7824    1.0626    4.0709 H         1 <0>         0.1512 
      45 H17        1.0447   -0.7349   -0.6458 H         1 <0>         0.0736 
      46 H18       -0.3936   -1.6671   -0.2684 H         1 <0>         0.0900 
      47 H19       -1.7687    0.0049   -1.5864 H         1 <0>         0.0715 
      48 H20       -0.5999   -0.8657   -2.5720 H         1 <0>         0.0728 
      49 H21        0.7616    1.0116   -2.8622 H         1 <0>         0.0706 
      50 H22       -0.8117    1.7896   -2.7498 H         1 <0>         0.0661 
      51 H23        0.3739    3.0623   -1.2058 H         1 <0>         0.0735 
      52 H24        1.4423    1.7378   -0.7606 H         1 <0>         0.0762 
      53 H25       -0.1487    2.3764    1.0779 H         1 <0>         0.0928 
      54 H26       -1.5005    1.9528    0.0366 H         1 <0>         0.0829 
@<TRIPOS>BOND
       1        1        2 1        
       2        1       29 1        
       3        1       30 1        
       4        1       31 1        
       5        2        3 1        
       6        2       32 1        
       7        2       33 1        
       8        3        4 2        
       9        3        5 am       
      10        5        6 1        
      11        5       34 1        
      12        6        7 1        
      13        6       35 1        
      14        6       36 1        
      15        7        8 2        
      16        7        9 1        
      17        9       10 1        
      18       10       11 1        
      19       10       12 1        
      20       10       37 1        
      21       11       38 1        
      22       11       39 1        
      23       11       40 1        
      24       12       13 2        
      25       12       14 am       
      26       14       15 1        
      27       14       41 1        
      28       15       20 ar       
      29       15       16 ar       
      30       16       17 ar       
      31       16       42 1        
      32       17       18 ar       
      33       17       43 1        
      34       18       23 1        
      35       18       19 ar       
      36       19       20 ar       
      37       19       21 1        
      38       20       44 1        
      39       21       22 1        
      40       22       28 1        
      41       22       23 1        
      42       22       24 1        
      43       24       25 1        
      44       24       45 1        
      45       24       46 1        
      46       25       26 1        
      47       25       47 1        
      48       25       48 1        
      49       26       27 1        
      50       26       49 1        
      51       26       50 1        
      52       27       28 1        
      53       27       51 1        
      54       27       52 1        
      55       28       53 1        
      56       28       54 1        

