#        1GCZ_R01_S0001_C0000_L00012_S0001_C0007_G0010_E0001.mol2
#        Tue Jun  6 14:13:13 2017
#        Descriptor:     34    22     3     9    10    11
#        Energy - RMSD - RMSD MassCentre:     -77.7222    999.9999    999.9999
#        Receptor:       1  Surface Point:     1  Conformer:     0
#        Ligand:        12  Surface Point:     1  Conformer:     7
#        BUDE Formal Charge: 0
#        ATOM Count: 54
#        Heavy ATOM Count: 28
@<TRIPOS>MOLECULE
ZINC61282011_1GCZ_R01_S0001_C0000_L00012_S0001_C0007_G0010_E0001
 54 56 0 0 0
SMALL
USER_CHARGES
@<TRIPOS>ATOM
       1 C1         0.5878    6.1884    5.7879 C.3       1 <0>        -0.1394 
       2 C2         1.0448    5.8425    7.2021 C.3       1 <0>        -0.1416 
       3 C3         2.2155    4.8912    7.1333 C.2       1 <0>         0.5168 
       4 O1         2.6461    4.5226    6.0417 O.2       1 <0>        -0.5327 
       5 N1         2.7814    4.4517    8.2537 N.am      1 <0>        -0.7288 
       6 C4         3.9210    3.5257    8.1867 C.3       1 <0>         0.1281 
       7 C5         3.4235    2.1402    7.8507 C.2       1 <0>         0.4647 
       8 O2         3.5349    1.2553    8.6459 O.2       1 <0>        -0.5000 
       9 O3         2.8527    1.9010    6.6510 O.3       1 <0>        -0.3169 
      10 C6         2.3968    0.5734    6.3779 C.3       1 <0>         0.0729 
      11 C7         3.5731   -0.3955    6.4561 C.3       1 <0>        -0.1704 
      12 C8         1.7958    0.5235    4.9935 C.2       1 <0>         0.5166 
      13 O4         2.2540   -0.2463    4.1507 O.2       1 <0>        -0.4890 
      14 N2         0.7703    1.3123    4.6853 N.am      1 <0>        -0.6633 
      15 C9         0.2061    1.2665    3.3885 C.ar      1 <0>         0.1513 
      16 C10       -0.9028    2.0715    3.1018 C.ar      1 <0>        -0.1318 
      17 C11       -1.5016    2.0669    1.8365 C.ar      1 <0>        -0.0823 
      18 C12       -0.9330    1.2178    0.8797 C.ar      1 <0>         0.0206 
      19 C13        0.1796    0.4211    1.1748 C.ar      1 <0>         0.0545 
      20 C14        0.7869    0.4146    2.4361 C.ar      1 <0>        -0.1051 
      21 O5         0.5018   -0.3863    0.0860 O.3       1 <0>        -0.2879 
      22 C15       -0.1898    0.3652   -0.9148 C.3       1 <0>         0.2651 
      23 O6        -1.3436    1.0472   -0.4163 O.3       1 <0>        -0.2965 
      24 C16       -0.6033   -0.5952   -2.0647 C.3       1 <0>        -0.1489 
      25 C17       -0.5372    0.0799   -3.4471 C.3       1 <0>        -0.1151 
      26 C18       -0.8798    1.5772   -3.3354 C.3       1 <0>        -0.1246 
      27 C19        0.1761    2.3233   -2.4986 C.3       1 <0>        -0.1168 
      28 C20        0.8173    1.4037   -1.4430 C.3       1 <0>        -0.1129 
      29 H1         0.2745    5.2806    5.2764 H         1 <0>         0.0628 
      30 H2        -0.2473    6.8840    5.8373 H         1 <0>         0.0629 
      31 H3         1.4108    6.6466    5.2434 H         1 <0>         0.0642 
      32 H4         0.2268    5.3713    7.7431 H         1 <0>         0.0966 
      33 H5         1.3465    6.7511    7.7190 H         1 <0>         0.0967 
      34 H6         2.4287    4.7537    9.1507 H         1 <0>         0.4129 
      35 H7         4.6144    3.8580    7.4170 H         1 <0>         0.1177 
      36 H8         4.4291    3.5046    9.1485 H         1 <0>         0.1174 
      37 H9         1.6435    0.2901    7.1099 H         1 <0>         0.1170 
      38 H10        4.3311   -0.1038    5.7323 H         1 <0>         0.0784 
      39 H11        3.9977   -0.3693    7.4574 H         1 <0>         0.0805 
      40 H12        3.2275   -1.4030    6.2343 H         1 <0>         0.0845 
      41 H13        0.3941    1.9443    5.3773 H         1 <0>         0.4164 
      42 H14       -1.3073    2.7129    3.8708 H         1 <0>         0.1427 
      43 H15       -2.3570    2.6876    1.6135 H         1 <0>         0.1415 
      44 H16        1.6456   -0.2074    2.6412 H         1 <0>         0.1512 
      45 H17        0.0425   -1.4706   -2.0530 H         1 <0>         0.0736 
      46 H18       -1.6184   -0.9343   -1.8689 H         1 <0>         0.0900 
      47 H19       -1.2447   -0.4001   -4.1201 H         1 <0>         0.0715 
      48 H20        0.4586   -0.0368   -3.8694 H         1 <0>         0.0728 
      49 H21       -0.9212    2.0143   -4.3308 H         1 <0>         0.0706 
      50 H22       -1.8592    1.6975   -2.8772 H         1 <0>         0.0661 
      51 H23       -0.2955    3.1653   -1.9961 H         1 <0>         0.0735 
      52 H24        0.9491    2.7171   -3.1555 H         1 <0>         0.0762 
      53 H25        1.6634    0.8805   -1.8833 H         1 <0>         0.0928 
      54 H26        1.1913    2.0051   -0.6170 H         1 <0>         0.0829 
@<TRIPOS>BOND
       1        1        2 1        
       2        1       29 1        
       3        1       30 1        
       4        1       31 1        
       5        2        3 1        
       6        2       32 1        
       7        2       33 1        
       8        3        4 2        
       9        3        5 am       
      10        5        6 1        
      11        5       34 1        
      12        6        7 1        
      13        6       35 1        
      14        6       36 1        
      15        7        8 2        
      16        7        9 1        
      17        9       10 1        
      18       10       11 1        
      19       10       12 1        
      20       10       37 1        
      21       11       38 1        
      22       11       39 1        
      23       11       40 1        
      24       12       13 2        
      25       12       14 am       
      26       14       15 1        
      27       14       41 1        
      28       15       20 ar       
      29       15       16 ar       
      30       16       17 ar       
      31       16       42 1        
      32       17       18 ar       
      33       17       43 1        
      34       18       23 1        
      35       18       19 ar       
      36       19       20 ar       
      37       19       21 1        
      38       20       44 1        
      39       21       22 1        
      40       22       28 1        
      41       22       23 1        
      42       22       24 1        
      43       24       25 1        
      44       24       45 1        
      45       24       46 1        
      46       25       26 1        
      47       25       47 1        
      48       25       48 1        
      49       26       27 1        
      50       26       49 1        
      51       26       50 1        
      52       27       28 1        
      53       27       51 1        
      54       27       52 1        
      55       28       53 1        
      56       28       54 1        

