#        1GCZ_R01_S0001_C0000_L00012_S0001_C0008_G0010_E0001.mol2
#        Tue Jun  6 09:58:42 2017
#        Descriptor:     15    32    11     8     7    13
#        Energy - RMSD - RMSD MassCentre:     -70.8215    999.9999    999.9999
#        Receptor:       1  Surface Point:     1  Conformer:     0
#        Ligand:        12  Surface Point:     1  Conformer:     8
#        BUDE Formal Charge: 0
#        ATOM Count: 54
#        Heavy ATOM Count: 28
@<TRIPOS>MOLECULE
ZINC61282011_1GCZ_R01_S0001_C0000_L00012_S0001_C0008_G0010_E0001
 54 56 0 0 0
SMALL
USER_CHARGES
@<TRIPOS>ATOM
       1 C1         3.9866   -0.8410    8.3420 C.3       1 <0>        -0.1394 
       2 C2         3.4439   -1.3481    9.6750 C.3       1 <0>        -0.1416 
       3 C3         2.4415   -2.4489    9.4234 C.2       1 <0>         0.5168 
       4 O1         2.1848   -2.7967    8.2718 O.2       1 <0>        -0.5327 
       5 N1         1.8358   -3.0431   10.4476 N.am      1 <0>        -0.7288 
       6 C4         0.8599   -4.1147   10.2027 C.3       1 <0>         0.1281 
       7 C5        -0.4425   -3.5109    9.7347 C.2       1 <0>         0.4647 
       8 O2        -1.4232   -3.6059   10.4109 O.2       1 <0>        -0.5000 
       9 O3        -0.4993   -2.8634    8.5515 O.3       1 <0>        -0.3169 
      10 C6        -1.7545   -2.3081    8.1503 C.3       1 <0>         0.0729 
      11 C7        -2.7928   -3.4211    8.0419 C.3       1 <0>        -0.1704 
      12 C8        -1.5993   -1.6332    6.8084 C.2       1 <0>         0.5166 
      13 O4        -2.2856   -1.9953    5.8540 O.2       1 <0>        -0.4890 
      14 N2        -0.7202   -0.6467    6.6583 N.am      1 <0>        -0.6633 
      15 C9        -0.5738   -0.0133    5.4015 C.ar      1 <0>         0.1513 
      16 C10        0.3237    1.0542    5.2797 C.ar      1 <0>        -0.1318 
      17 C11        0.5091    1.7177    4.0610 C.ar      1 <0>        -0.0823 
      18 C12       -0.2483    1.2567    2.9776 C.ar      1 <0>         0.0206 
      19 C13       -1.1388    0.1846    3.1085 C.ar      1 <0>         0.0545 
      20 C14       -1.3351   -0.4865    4.3214 C.ar      1 <0>        -0.1051 
      21 O5        -1.8242   -0.0266    1.9141 O.3       1 <0>        -0.2879 
      22 C15       -0.9167    0.6660    1.0531 C.3       1 <0>         0.2651 
      23 O6        -0.2346    1.7451    1.6975 O.3       1 <0>        -0.2965 
      24 C16       -1.7496    1.1769   -0.1625 C.3       1 <0>        -0.1489 
      25 C17       -0.8925    1.2073   -1.4416 C.3       1 <0>        -0.1151 
      26 C18       -0.5106   -0.2214   -1.8714 C.3       1 <0>        -0.1246 
      27 C19       -0.3720   -1.1467   -0.6481 C.3       1 <0>        -0.1168 
      28 C20        0.1180   -0.3776    0.5927 C.3       1 <0>        -0.1129 
      29 H1         3.1681   -0.4427    7.7459 H         1 <0>         0.0628 
      30 H2         4.7185   -0.0569    8.5238 H         1 <0>         0.0629 
      31 H3         4.4591   -1.6624    7.8074 H         1 <0>         0.0642 
      32 H4         2.9587   -0.5306   10.2042 H         1 <0>         0.0966 
      33 H5         4.2632   -1.7351   10.2772 H         1 <0>         0.0967 
      34 H6         2.0458   -2.7584   11.3936 H         1 <0>         0.4129 
      35 H7         1.2429   -4.7869    9.4377 H         1 <0>         0.1177 
      36 H8         0.6916   -4.6701   11.1229 H         1 <0>         0.1174 
      37 H9        -2.0808   -1.5774    8.8873 H         1 <0>         0.1170 
      38 H10       -2.4595   -4.1575    7.3138 H         1 <0>         0.0784 
      39 H11       -2.9142   -3.8985    9.0119 H         1 <0>         0.0805 
      40 H12       -3.7436   -2.9994    7.7230 H         1 <0>         0.0845 
      41 H13       -0.1567   -0.3494    7.4419 H         1 <0>         0.4164 
      42 H14        0.8886    1.3750    6.1424 H         1 <0>         0.1427 
      43 H15        1.2013    2.5412    3.9652 H         1 <0>         0.1415 
      44 H16       -2.0267   -1.3123    4.3991 H         1 <0>         0.1512 
      45 H17       -2.6170    0.5388   -0.3175 H         1 <0>         0.0736 
      46 H18       -2.1144    2.1774    0.0598 H         1 <0>         0.0900 
      47 H19        0.0138    1.7805   -1.2582 H         1 <0>         0.0715 
      48 H20       -1.4412    1.6961   -2.2438 H         1 <0>         0.0728 
      49 H21       -1.2774   -0.6172   -2.5339 H         1 <0>         0.0706 
      50 H22        0.4278   -0.2018   -2.4216 H         1 <0>         0.0661 
      51 H23        0.3377   -1.9389   -0.8776 H         1 <0>         0.0735 
      52 H24       -1.3322   -1.6110   -0.4324 H         1 <0>         0.0762 
      53 H25        0.2972   -1.0774    1.4061 H         1 <0>         0.0928 
      54 H26        1.0604    0.1160    0.3649 H         1 <0>         0.0829 
@<TRIPOS>BOND
       1        1        2 1        
       2        1       29 1        
       3        1       30 1        
       4        1       31 1        
       5        2        3 1        
       6        2       32 1        
       7        2       33 1        
       8        3        4 2        
       9        3        5 am       
      10        5        6 1        
      11        5       34 1        
      12        6        7 1        
      13        6       35 1        
      14        6       36 1        
      15        7        8 2        
      16        7        9 1        
      17        9       10 1        
      18       10       11 1        
      19       10       12 1        
      20       10       37 1        
      21       11       38 1        
      22       11       39 1        
      23       11       40 1        
      24       12       13 2        
      25       12       14 am       
      26       14       15 1        
      27       14       41 1        
      28       15       20 ar       
      29       15       16 ar       
      30       16       17 ar       
      31       16       42 1        
      32       17       18 ar       
      33       17       43 1        
      34       18       23 1        
      35       18       19 ar       
      36       19       20 ar       
      37       19       21 1        
      38       20       44 1        
      39       21       22 1        
      40       22       28 1        
      41       22       23 1        
      42       22       24 1        
      43       24       25 1        
      44       24       45 1        
      45       24       46 1        
      46       25       26 1        
      47       25       47 1        
      48       25       48 1        
      49       26       27 1        
      50       26       49 1        
      51       26       50 1        
      52       27       28 1        
      53       27       51 1        
      54       27       52 1        
      55       28       53 1        
      56       28       54 1        

