#        1GCZ_R01_S0001_C0000_L00012_S0001_C0008_G0010_E0001.mol2
#        Tue Jun  6 14:13:15 2017
#        Descriptor:     15    31    24     8     9    13
#        Energy - RMSD - RMSD MassCentre:     -73.9447    999.9999    999.9999
#        Receptor:       1  Surface Point:     1  Conformer:     0
#        Ligand:        12  Surface Point:     1  Conformer:     8
#        BUDE Formal Charge: 0
#        ATOM Count: 54
#        Heavy ATOM Count: 28
@<TRIPOS>MOLECULE
ZINC61282011_1GCZ_R01_S0001_C0000_L00012_S0001_C0008_G0010_E0001
 54 56 0 0 0
SMALL
USER_CHARGES
@<TRIPOS>ATOM
       1 C1        -2.9837    3.4331    8.5020 C.3       1 <0>        -0.1394 
       2 C2        -2.3644    3.1391    9.8653 C.3       1 <0>        -0.1416 
       3 C3        -0.8602    3.1076    9.7376 C.2       1 <0>         0.5168 
       4 O1        -0.3306    3.3044    8.6450 O.2       1 <0>        -0.5327 
       5 N1        -0.1073    2.8668   10.8072 N.am      1 <0>        -0.7288 
       6 C4         1.3570    2.8361   10.6829 C.3       1 <0>         0.1281 
       7 C5         1.7800    1.5339   10.0462 C.2       1 <0>         0.4647 
       8 O2         2.4263    0.7453   10.6694 O.2       1 <0>        -0.5000 
       9 O3         1.4280    1.2604    8.7720 O.3       1 <0>        -0.3169 
      10 C6         1.8515    0.0147    8.2117 C.3       1 <0>         0.0729 
      11 C7         3.3757   -0.0580    8.2249 C.3       1 <0>        -0.1704 
      12 C8         1.3558   -0.0907    6.7892 C.2       1 <0>         0.5166 
      13 O4         2.1563   -0.2416    5.8677 O.2       1 <0>        -0.4890 
      14 N2         0.0527   -0.0206    6.5327 N.am      1 <0>        -0.6633 
      15 C9        -0.4134   -0.1194    5.2003 C.ar      1 <0>         0.1513 
      16 C10       -1.7921   -0.0906    4.9595 C.ar      1 <0>        -0.1318 
      17 C11       -2.3095   -0.1844    3.6620 C.ar      1 <0>        -0.0823 
      18 C12       -1.3768   -0.3076    2.6253 C.ar      1 <0>         0.0206 
      19 C13        0.0002   -0.3296    2.8763 C.ar      1 <0>         0.0545 
      20 C14        0.5309   -0.2385    4.1686 C.ar      1 <0>        -0.1051 
      21 O5         0.7065   -0.5388    1.6938 O.3       1 <0>        -0.2879 
      22 C15       -0.3300   -0.1549    0.7867 C.3       1 <0>         0.2651 
      23 O6        -1.6451   -0.4126    1.2858 O.3       1 <0>        -0.2965 
      24 C16       -0.0747   -0.9284   -0.5432 C.3       1 <0>        -0.1489 
      25 C17       -0.5398   -0.1025   -1.7569 C.3       1 <0>        -0.1151 
      26 C18        0.3352    1.1536   -1.9244 C.3       1 <0>        -0.1246 
      27 C19        0.8419    1.6586   -0.5605 C.3       1 <0>        -0.1168 
      28 C20       -0.1659    1.3602    0.5651 C.3       1 <0>        -0.1129 
      29 H1        -2.7060    2.6484    7.8014 H         1 <0>         0.0628 
      30 H2        -4.0669    3.4688    8.5966 H         1 <0>         0.0629 
      31 H3        -2.6189    4.3912    8.1377 H         1 <0>         0.0642 
      32 H4        -2.7176    2.1746   10.2243 H         1 <0>         0.0966 
      33 H5        -2.6517    3.9165   10.5702 H         1 <0>         0.0967 
      34 H6        -0.5410    2.7050   11.7049 H         1 <0>         0.4129 
      35 H7         1.6865    3.6665   10.0620 H         1 <0>         0.1177 
      36 H8         1.8073    2.9196   11.6698 H         1 <0>         0.1174 
      37 H9         1.4436   -0.8052    8.7989 H         1 <0>         0.1170 
      38 H10        3.7827    0.7696    7.6478 H         1 <0>         0.0784 
      39 H11        3.7322    0.0047    9.2509 H         1 <0>         0.0805 
      40 H12        3.6970   -1.0000    7.7855 H         1 <0>         0.0845 
      41 H13       -0.6046    0.1033    7.2893 H         1 <0>         0.4164 
      42 H14       -2.4751    0.0077    5.7903 H         1 <0>         0.1427 
      43 H15       -3.3729   -0.1620    3.4745 H         1 <0>         0.1415 
      44 H16        1.5972   -0.2561    4.3389 H         1 <0>         0.1512 
      45 H17        0.9828   -1.1634   -0.6433 H         1 <0>         0.0736 
      46 H18       -0.6178   -1.8703   -0.5092 H         1 <0>         0.0900 
      47 H19       -1.5757    0.1987   -1.6160 H         1 <0>         0.0715 
      48 H20       -0.4870   -0.7079   -2.6593 H         1 <0>         0.0728 
      49 H21        1.1880    0.9188   -2.5578 H         1 <0>         0.0706 
      50 H22       -0.2375    1.9387   -2.4137 H         1 <0>         0.0661 
      51 H23        1.0049    2.7330   -0.6150 H         1 <0>         0.0735 
      52 H24        1.7951    1.1876   -0.3293 H         1 <0>         0.0762 
      53 H25        0.1790    1.8156    1.4910 H         1 <0>         0.0928 
      54 H26       -1.1288    1.8011    0.3162 H         1 <0>         0.0829 
@<TRIPOS>BOND
       1        1        2 1        
       2        1       29 1        
       3        1       30 1        
       4        1       31 1        
       5        2        3 1        
       6        2       32 1        
       7        2       33 1        
       8        3        4 2        
       9        3        5 am       
      10        5        6 1        
      11        5       34 1        
      12        6        7 1        
      13        6       35 1        
      14        6       36 1        
      15        7        8 2        
      16        7        9 1        
      17        9       10 1        
      18       10       11 1        
      19       10       12 1        
      20       10       37 1        
      21       11       38 1        
      22       11       39 1        
      23       11       40 1        
      24       12       13 2        
      25       12       14 am       
      26       14       15 1        
      27       14       41 1        
      28       15       20 ar       
      29       15       16 ar       
      30       16       17 ar       
      31       16       42 1        
      32       17       18 ar       
      33       17       43 1        
      34       18       23 1        
      35       18       19 ar       
      36       19       20 ar       
      37       19       21 1        
      38       20       44 1        
      39       21       22 1        
      40       22       28 1        
      41       22       23 1        
      42       22       24 1        
      43       24       25 1        
      44       24       45 1        
      45       24       46 1        
      46       25       26 1        
      47       25       47 1        
      48       25       48 1        
      49       26       27 1        
      50       26       49 1        
      51       26       50 1        
      52       27       28 1        
      53       27       51 1        
      54       27       52 1        
      55       28       53 1        
      56       28       54 1        

