#        1GCZ_R01_S0001_C0000_L00012_S0001_C0009_G0010_E0001.mol2
#        Tue Jun  6 09:58:43 2017
#        Descriptor:     35    24     7     9     8    12
#        Energy - RMSD - RMSD MassCentre:     -78.3370    999.9999    999.9999
#        Receptor:       1  Surface Point:     1  Conformer:     0
#        Ligand:        12  Surface Point:     1  Conformer:     9
#        BUDE Formal Charge: 0
#        ATOM Count: 54
#        Heavy ATOM Count: 28
@<TRIPOS>MOLECULE
ZINC61282011_1GCZ_R01_S0001_C0000_L00012_S0001_C0009_G0010_E0001
 54 56 0 0 0
SMALL
USER_CHARGES
@<TRIPOS>ATOM
       1 C1         4.9731    0.1013    4.4988 C.3       1 <0>        -0.1394 
       2 C2         4.5593    0.2589    5.9593 C.3       1 <0>        -0.1416 
       3 C3         4.7718   -1.0479    6.6853 C.2       1 <0>         0.5168 
       4 O1         5.2171   -2.0226    6.0816 O.2       1 <0>        -0.5327 
       5 N1         4.4768   -1.1451    7.9786 N.am      1 <0>        -0.7288 
       6 C4         3.9447    0.0197    8.7001 C.3       1 <0>         0.1281 
       7 C5         2.4893    0.2090    8.3446 C.2       1 <0>         0.4647 
       8 O2         2.1408    1.1848    7.7496 O.2       1 <0>        -0.5000 
       9 O3         1.5814   -0.7250    8.6992 O.3       1 <0>        -0.3169 
      10 C6         0.2151   -0.5024    8.3408 C.3       1 <0>         0.0729 
      11 C7        -0.6479   -1.6319    8.8959 C.3       1 <0>        -0.1704 
      12 C8         0.0896   -0.4670    6.8364 C.2       1 <0>         0.5166 
      13 O4         1.0786   -0.6608    6.1313 O.2       1 <0>        -0.4890 
      14 N2        -1.0910   -0.2263    6.2735 N.am      1 <0>        -0.6633 
      15 C9        -1.2103   -0.1930    4.8640 C.ar      1 <0>         0.1513 
      16 C10       -2.4633    0.0623    4.2945 C.ar      1 <0>        -0.1318 
      17 C11       -2.6399    0.1071    2.9064 C.ar      1 <0>        -0.0823 
      18 C12       -1.5003   -0.1160    2.1245 C.ar      1 <0>         0.0206 
      19 C13       -0.2504   -0.3647    2.7040 C.ar      1 <0>         0.0545 
      20 C14       -0.0603   -0.4141    4.0901 C.ar      1 <0>        -0.1051 
      21 O5         0.6977   -0.6308    1.7186 O.3       1 <0>        -0.2879 
      22 C15       -0.0076   -0.0501    0.6188 C.3       1 <0>         0.2651 
      23 O6        -1.4293   -0.1195    0.7563 O.3       1 <0>        -0.2965 
      24 C16        0.3988   -0.7724   -0.7711 C.3       1 <0>        -0.1489 
      25 C17       -0.2056   -0.0258   -1.9747 C.3       1 <0>        -0.1151 
      26 C18        0.2336    1.4503   -1.9723 C.3       1 <0>        -0.1246 
      27 C19       -0.1732    2.1445   -0.6591 C.3       1 <0>        -0.1168 
      28 C20        0.4196    1.4286    0.5686 C.3       1 <0>        -0.1129 
      29 H1         4.3605   -0.6659    4.0298 H         1 <0>         0.0628 
      30 H2         4.8325    1.0465    3.9788 H         1 <0>         0.0629 
      31 H3         6.0204   -0.1889    4.4484 H         1 <0>         0.0642 
      32 H4         3.5085    0.5354    6.0112 H         1 <0>         0.0966 
      33 H5         5.1629    1.0346    6.4261 H         1 <0>         0.0967 
      34 H6         4.6185   -2.0188    8.4654 H         1 <0>         0.4129 
      35 H7         4.0372   -0.1432    9.7718 H         1 <0>         0.1177 
      36 H8         4.5047    0.9088    8.4182 H         1 <0>         0.1174 
      37 H9        -0.1191    0.4468    8.7543 H         1 <0>         0.1170 
      38 H10       -0.3049   -2.5819    8.4914 H         1 <0>         0.0784 
      39 H11       -0.5680   -1.6489    9.9808 H         1 <0>         0.0805 
      40 H12       -1.6851   -1.4688    8.6105 H         1 <0>         0.0845 
      41 H13       -1.9031   -0.0672    6.8525 H         1 <0>         0.4164 
      42 H14       -3.3152    0.2305    4.9369 H         1 <0>         0.1427 
      43 H15       -3.6059    0.3043    2.4655 H         1 <0>         0.1415 
      44 H16        0.9136   -0.6063    4.5155 H         1 <0>         0.1512 
      45 H17        1.4814   -0.8125   -0.8706 H         1 <0>         0.0736 
      46 H18        0.0333   -1.7969   -0.7524 H         1 <0>         0.0900 
      47 H19       -1.2913   -0.0765   -1.9259 H         1 <0>         0.0715 
      48 H20        0.1104   -0.4998   -2.9016 H         1 <0>         0.0728 
      49 H21        1.3142    1.5065   -2.0864 H         1 <0>         0.0706 
      50 H22       -0.2183    1.9702   -2.8144 H         1 <0>         0.0661 
      51 H23       -1.2582    2.1483   -0.5779 H         1 <0>         0.0735 
      52 H24        0.1638    3.1788   -0.6748 H         1 <0>         0.0762 
      53 H25        1.5056    1.4795    0.5291 H         1 <0>         0.0928 
      54 H26        0.0956    1.9351    1.4755 H         1 <0>         0.0829 
@<TRIPOS>BOND
       1        1        2 1        
       2        1       29 1        
       3        1       30 1        
       4        1       31 1        
       5        2        3 1        
       6        2       32 1        
       7        2       33 1        
       8        3        4 2        
       9        3        5 am       
      10        5        6 1        
      11        5       34 1        
      12        6        7 1        
      13        6       35 1        
      14        6       36 1        
      15        7        8 2        
      16        7        9 1        
      17        9       10 1        
      18       10       11 1        
      19       10       12 1        
      20       10       37 1        
      21       11       38 1        
      22       11       39 1        
      23       11       40 1        
      24       12       13 2        
      25       12       14 am       
      26       14       15 1        
      27       14       41 1        
      28       15       20 ar       
      29       15       16 ar       
      30       16       17 ar       
      31       16       42 1        
      32       17       18 ar       
      33       17       43 1        
      34       18       23 1        
      35       18       19 ar       
      36       19       20 ar       
      37       19       21 1        
      38       20       44 1        
      39       21       22 1        
      40       22       28 1        
      41       22       23 1        
      42       22       24 1        
      43       24       25 1        
      44       24       45 1        
      45       24       46 1        
      46       25       26 1        
      47       25       47 1        
      48       25       48 1        
      49       26       27 1        
      50       26       49 1        
      51       26       50 1        
      52       27       28 1        
      53       27       51 1        
      54       27       52 1        
      55       28       53 1        
      56       28       54 1        

