#        1GCZ_R01_S0001_C0000_L00012_S0001_C0009_G0010_E0001.mol2
#        Tue Jun  6 14:13:17 2017
#        Descriptor:     33    23     5    10     8    12
#        Energy - RMSD - RMSD MassCentre:     -69.8082    999.9999    999.9999
#        Receptor:       1  Surface Point:     1  Conformer:     0
#        Ligand:        12  Surface Point:     1  Conformer:     9
#        BUDE Formal Charge: 0
#        ATOM Count: 54
#        Heavy ATOM Count: 28
@<TRIPOS>MOLECULE
ZINC61282011_1GCZ_R01_S0001_C0000_L00012_S0001_C0009_G0010_E0001
 54 56 0 0 0
SMALL
USER_CHARGES
@<TRIPOS>ATOM
       1 C1         5.9671   -0.1422    3.4647 C.3       1 <0>        -0.1394 
       2 C2         5.9524    0.1020    4.9711 C.3       1 <0>        -0.1416 
       3 C3         6.2742   -1.1854    5.6917 C.2       1 <0>         0.5168 
       4 O1         6.4961   -2.2113    5.0506 O.2       1 <0>        -0.5327 
       5 N1         6.3174   -1.2100    7.0208 N.am      1 <0>        -0.7288 
       6 C4         6.0522    0.0160    7.7870 C.3       1 <0>         0.1281 
       7 C5         4.5667    0.2868    7.8036 C.2       1 <0>         0.4647 
       8 O2         4.1296    1.2585    7.2628 O.2       1 <0>        -0.5000 
       9 O3         3.7319   -0.5697    8.4297 O.3       1 <0>        -0.3169 
      10 C6         2.3334   -0.2717    8.4189 C.3       1 <0>         0.0729 
      11 C7         1.5831   -1.3179    9.2381 C.3       1 <0>        -0.1704 
      12 C8         1.8269   -0.2895    6.9964 C.2       1 <0>         0.5166 
      13 O4         2.5891   -0.5771    6.0749 O.2       1 <0>        -0.4890 
      14 N2         0.5558    0.0059    6.7398 N.am      1 <0>        -0.6633 
      15 C9         0.0796   -0.0105    5.4075 C.ar      1 <0>         0.1513 
      16 C10       -1.2623    0.3038    5.1622 C.ar      1 <0>        -0.1318 
      17 C11       -1.7875    0.3036    3.8645 C.ar      1 <0>        -0.0823 
      18 C12       -0.9014   -0.0263    2.8322 C.ar      1 <0>         0.0206 
      19 C13        0.4404   -0.3335    3.0877 C.ar      1 <0>         0.0545 
      20 C14        0.9780   -0.3389    4.3802 C.ar      1 <0>        -0.1051 
      21 O5         1.0871   -0.7019    1.9100 O.3       1 <0>        -0.2879 
      22 C15        0.1547   -0.1210    0.9950 C.3       1 <0>         0.2651 
      23 O6        -1.1854   -0.0903    1.4935 O.3       1 <0>        -0.2965 
      24 C16        0.1501   -0.9248   -0.4095 C.3       1 <0>        -0.1489 
      25 C17       -0.7028   -0.1895   -1.4598 C.3       1 <0>        -0.1151 
      26 C18       -0.1993    1.2531   -1.6526 C.3       1 <0>        -0.1246 
      27 C19       -0.2164    2.0257   -0.3205 C.3       1 <0>        -0.1168 
      28 C20        0.6333    1.3228    0.7543 C.3       1 <0>        -0.1129 
      29 H1         5.2141   -0.8856    3.2111 H         1 <0>         0.0628 
      30 H2         5.7482    0.7883    2.9451 H         1 <0>         0.0629 
      31 H3         6.9490   -0.5031    3.1659 H         1 <0>         0.0642 
      32 H4         4.9667    0.4495    5.2730 H         1 <0>         0.0966 
      33 H5         6.6965    0.8542    5.2243 H         1 <0>         0.0967 
      34 H6         6.5325   -2.0705    7.5040 H         1 <0>         0.4129 
      35 H7         6.4087   -0.1088    8.8073 H         1 <0>         0.1177 
      36 H8         6.5676    0.8538    7.3222 H         1 <0>         0.1174 
      37 H9         2.1684    0.7137    8.8495 H         1 <0>         0.1170 
      38 H10        1.7588   -2.3042    8.8139 H         1 <0>         0.0784 
      39 H11        1.9386   -1.2959   10.2661 H         1 <0>         0.0805 
      40 H12        0.5176   -1.0981    9.2173 H         1 <0>         0.0845 
      41 H13       -0.0701    0.2420    7.4965 H         1 <0>         0.4164 
      42 H14       -1.9097    0.5543    5.9897 H         1 <0>         0.1427 
      43 H15       -2.8225    0.5463    3.6735 H         1 <0>         0.1415 
      44 H16        2.0169   -0.5777    4.5539 H         1 <0>         0.1512 
      45 H17        1.1668   -1.0406   -0.7789 H         1 <0>         0.0736 
      46 H18       -0.2527   -1.9212   -0.2406 H         1 <0>         0.0900 
      47 H19       -1.7405   -0.1660   -1.1336 H         1 <0>         0.0715 
      48 H20       -0.6621   -0.7208   -2.4083 H         1 <0>         0.0728 
      49 H21        0.8169    1.2328   -2.0409 H         1 <0>         0.0706 
      50 H22       -0.8241    1.7671   -2.3800 H         1 <0>         0.0661 
      51 H23       -1.2421    2.1049    0.0338 H         1 <0>         0.0735 
      52 H24        0.1603    3.0339   -0.4797 H         1 <0>         0.0762 
      53 H25        1.6735    1.2999    0.4369 H         1 <0>         0.0928 
      54 H26        0.5813    1.8862    1.6837 H         1 <0>         0.0829 
@<TRIPOS>BOND
       1        1        2 1        
       2        1       29 1        
       3        1       30 1        
       4        1       31 1        
       5        2        3 1        
       6        2       32 1        
       7        2       33 1        
       8        3        4 2        
       9        3        5 am       
      10        5        6 1        
      11        5       34 1        
      12        6        7 1        
      13        6       35 1        
      14        6       36 1        
      15        7        8 2        
      16        7        9 1        
      17        9       10 1        
      18       10       11 1        
      19       10       12 1        
      20       10       37 1        
      21       11       38 1        
      22       11       39 1        
      23       11       40 1        
      24       12       13 2        
      25       12       14 am       
      26       14       15 1        
      27       14       41 1        
      28       15       20 ar       
      29       15       16 ar       
      30       16       17 ar       
      31       16       42 1        
      32       17       18 ar       
      33       17       43 1        
      34       18       23 1        
      35       18       19 ar       
      36       19       20 ar       
      37       19       21 1        
      38       20       44 1        
      39       21       22 1        
      40       22       28 1        
      41       22       23 1        
      42       22       24 1        
      43       24       25 1        
      44       24       45 1        
      45       24       46 1        
      46       25       26 1        
      47       25       47 1        
      48       25       48 1        
      49       26       27 1        
      50       26       49 1        
      51       26       50 1        
      52       27       28 1        
      53       27       51 1        
      54       27       52 1        
      55       28       53 1        
      56       28       54 1        

