#        1GCZ_R01_S0001_C0000_L00012_S0001_C0010_G0010_E0001.mol2
#        Tue Jun  6 09:58:44 2017
#        Descriptor:     33    22     7     9     9    13
#        Energy - RMSD - RMSD MassCentre:     -72.3742    999.9999    999.9999
#        Receptor:       1  Surface Point:     1  Conformer:     0
#        Ligand:        12  Surface Point:     1  Conformer:    10
#        BUDE Formal Charge: 0
#        ATOM Count: 54
#        Heavy ATOM Count: 28
@<TRIPOS>MOLECULE
ZINC61282011_1GCZ_R01_S0001_C0000_L00012_S0001_C0010_G0010_E0001
 54 56 0 0 0
SMALL
USER_CHARGES
@<TRIPOS>ATOM
       1 C1         4.3470    2.0382    4.0073 C.3       1 <0>        -0.1394 
       2 C2         4.3383    2.5059    5.4599 C.3       1 <0>        -0.1416 
       3 C3         5.1278    1.5350    6.3049 C.2       1 <0>         0.5168 
       4 O1         5.6525    0.5515    5.7852 O.2       1 <0>        -0.5327 
       5 N1         5.2558    1.7434    7.6123 N.am      1 <0>        -0.7288 
       6 C4         4.6287    2.9189    8.2334 C.3       1 <0>         0.1281 
       7 C5         3.1451    2.6786    8.3794 C.2       1 <0>         0.4647 
       8 O2         2.3675    3.3473    7.7664 O.2       1 <0>        -0.5000 
       9 O3         2.6969    1.7075    9.2032 O.3       1 <0>        -0.3169 
      10 C6         1.2837    1.5169    9.3090 C.3       1 <0>         0.0729 
      11 C7         0.9917    0.4292   10.3387 C.3       1 <0>        -0.1704 
      12 C8         0.7310    1.0997    7.9670 C.2       1 <0>         0.5166 
      13 O4         1.4895    0.9360    7.0127 O.2       1 <0>        -0.4890 
      14 N2        -0.5766    0.9091    7.8169 N.am      1 <0>        -0.6633 
      15 C9        -1.0959    0.5180    6.5602 C.ar      1 <0>         0.1513 
      16 C10       -2.4695    0.2771    6.4384 C.ar      1 <0>        -0.1318 
      17 C11       -3.0380   -0.1119    5.2197 C.ar      1 <0>        -0.0823 
      18 C12       -2.1615   -0.2456    4.1363 C.ar      1 <0>         0.0206 
      19 C13       -0.7902    0.0033    4.2672 C.ar      1 <0>         0.0545 
      20 C14       -0.2085    0.3911    5.4800 C.ar      1 <0>        -0.1051 
      21 O5        -0.1294   -0.2755    3.0728 O.3       1 <0>        -0.2879 
      22 C15       -1.2698   -0.2228    2.2117 C.3       1 <0>         0.2651 
      23 O6        -2.4860   -0.6110    2.8562 O.3       1 <0>        -0.2965 
      24 C16       -0.9998   -1.1767    0.9390 C.3       1 <0>        -0.1489 
      25 C17        0.2367   -0.7009    0.1542 C.3       1 <0>        -0.1151 
      26 C18        0.0700    0.7670   -0.2808 C.3       1 <0>        -0.1246 
      27 C19       -0.1600    1.6804    0.9377 C.3       1 <0>        -0.1168 
      28 C20       -1.3916    1.2417    1.7514 C.3       1 <0>        -0.1129 
      29 H1         3.8841    1.0559    3.9405 H         1 <0>         0.0628 
      30 H2         3.7893    2.7448    3.3962 H         1 <0>         0.0629 
      31 H3         5.3736    1.9812    3.6514 H         1 <0>         0.0642 
      32 H4         3.3130    2.5499    5.8211 H         1 <0>         0.0966 
      33 H5         4.7897    3.4936    5.5262 H         1 <0>         0.0967 
      34 H6         5.7836    1.0947    8.1786 H         1 <0>         0.4129 
      35 H7         5.0663    3.0880    9.2150 H         1 <0>         0.1177 
      36 H8         4.7939    3.7926    7.6067 H         1 <0>         0.1174 
      37 H9         0.8138    2.4475    9.6204 H         1 <0>         0.1170 
      38 H10        1.4724   -0.4975   10.0325 H         1 <0>         0.0784 
      39 H11        1.3780    0.7357   11.3084 H         1 <0>         0.0805 
      40 H12       -0.0832    0.2753   10.4079 H         1 <0>         0.0845 
      41 H13       -1.1993    1.0436    8.6005 H         1 <0>         0.4164 
      42 H14       -3.1085    0.3945    7.3011 H         1 <0>         0.1427 
      43 H15       -4.0976   -0.2979    5.1239 H         1 <0>         0.1415 
      44 H16        0.8521    0.5792    5.5578 H         1 <0>         0.1512 
      45 H17       -0.8549   -2.2050    1.2630 H         1 <0>         0.0736 
      46 H18       -1.8754   -1.1568    0.2936 H         1 <0>         0.0900 
      47 H19        0.3685   -1.3232   -0.7285 H         1 <0>         0.0715 
      48 H20        1.1278   -0.8008    0.7703 H         1 <0>         0.0728 
      49 H21        0.9647    1.0922   -0.8074 H         1 <0>         0.0706 
      50 H22       -0.7707    0.8548   -0.9658 H         1 <0>         0.0661 
      51 H23       -0.3065    2.7028    0.5957 H         1 <0>         0.0735 
      52 H24        0.7215    1.6649    1.5756 H         1 <0>         0.0762 
      53 H25       -1.4931    1.8783    2.6276 H         1 <0>         0.0928 
      54 H26       -2.2878    1.3628    1.1466 H         1 <0>         0.0829 
@<TRIPOS>BOND
       1        1        2 1        
       2        1       29 1        
       3        1       30 1        
       4        1       31 1        
       5        2        3 1        
       6        2       32 1        
       7        2       33 1        
       8        3        4 2        
       9        3        5 am       
      10        5        6 1        
      11        5       34 1        
      12        6        7 1        
      13        6       35 1        
      14        6       36 1        
      15        7        8 2        
      16        7        9 1        
      17        9       10 1        
      18       10       11 1        
      19       10       12 1        
      20       10       37 1        
      21       11       38 1        
      22       11       39 1        
      23       11       40 1        
      24       12       13 2        
      25       12       14 am       
      26       14       15 1        
      27       14       41 1        
      28       15       20 ar       
      29       15       16 ar       
      30       16       17 ar       
      31       16       42 1        
      32       17       18 ar       
      33       17       43 1        
      34       18       23 1        
      35       18       19 ar       
      36       19       20 ar       
      37       19       21 1        
      38       20       44 1        
      39       21       22 1        
      40       22       28 1        
      41       22       23 1        
      42       22       24 1        
      43       24       25 1        
      44       24       45 1        
      45       24       46 1        
      46       25       26 1        
      47       25       47 1        
      48       25       48 1        
      49       26       27 1        
      50       26       49 1        
      51       26       50 1        
      52       27       28 1        
      53       27       51 1        
      54       27       52 1        
      55       28       53 1        
      56       28       54 1        

