#        1GCZ_R01_S0001_C0000_L00012_S0001_C0010_G0010_E0001.mol2
#        Tue Jun  6 14:13:19 2017
#        Descriptor:     32    22     5    10     8    12
#        Energy - RMSD - RMSD MassCentre:     -62.9582    999.9999    999.9999
#        Receptor:       1  Surface Point:     1  Conformer:     0
#        Ligand:        12  Surface Point:     1  Conformer:    10
#        BUDE Formal Charge: 0
#        ATOM Count: 54
#        Heavy ATOM Count: 28
@<TRIPOS>MOLECULE
ZINC61282011_1GCZ_R01_S0001_C0000_L00012_S0001_C0010_G0010_E0001
 54 56 0 0 0
SMALL
USER_CHARGES
@<TRIPOS>ATOM
       1 C1         5.3722    0.3178    2.6608 C.3       1 <0>        -0.1394 
       2 C2         5.6298    0.6576    4.1261 C.3       1 <0>        -0.1416 
       3 C3         6.2518   -0.5329    4.8160 C.2       1 <0>         0.5168 
       4 O1         6.4696   -1.5659    4.1850 O.2       1 <0>        -0.5327 
       5 N1         6.5643   -0.4644    6.1070 N.am      1 <0>        -0.7288 
       6 C4         6.3041    0.7702    6.8610 C.3       1 <0>         0.1281 
       7 C5         4.8302    0.8661    7.1748 C.2       1 <0>         0.4647 
       8 O2         4.1726    1.7423    6.6976 O.2       1 <0>        -0.5000 
       9 O3         4.2549   -0.0387    7.9951 O.3       1 <0>        -0.3169 
      10 C6         2.8564    0.0926    8.2630 C.3       1 <0>         0.0729 
      11 C7         2.4262   -0.9776    9.2621 C.3       1 <0>        -0.1704 
      12 C8         2.0806   -0.0782    6.9788 C.2       1 <0>         0.5166 
      13 O4         2.6722   -0.3351    5.9315 O.2       1 <0>        -0.4890 
      14 N2         0.7568    0.0491    6.9801 N.am      1 <0>        -0.6633 
      15 C9         0.0284   -0.1108    5.7776 C.ar      1 <0>         0.1513 
      16 C10       -1.3681   -0.0193    5.8124 C.ar      1 <0>        -0.1318 
      17 C11       -2.1394   -0.1690    4.6537 C.ar      1 <0>        -0.0823 
      18 C12       -1.4404   -0.4135    3.4656 C.ar      1 <0>         0.0206 
      19 C13       -0.0433   -0.4974    3.4406 C.ar      1 <0>         0.0545 
      20 C14        0.7399   -0.3515    4.5917 C.ar      1 <0>        -0.1051 
      21 O5         0.4011   -0.8242    2.1612 O.3       1 <0>        -0.2879 
      22 C15       -0.7793   -0.4426    1.4503 C.3       1 <0>         0.2651 
      23 O6        -1.9770   -0.5913    2.2175 O.3       1 <0>        -0.2965 
      24 C16       -0.8809   -1.3283    0.1058 C.3       1 <0>        -0.1489 
      25 C17        0.3422   -1.0880   -0.7985 C.3       1 <0>        -0.1151 
      26 C18        0.4832    0.4088   -1.1320 C.3       1 <0>        -0.1246 
      27 C19        0.6080    1.2504    0.1517 C.3       1 <0>        -0.1168 
      28 C20       -0.5985    1.0427    1.0859 C.3       1 <0>        -0.1129 
      29 H1         4.6850   -0.5235    2.5997 H         1 <0>         0.0628 
      30 H2         4.9362    1.1800    2.1606 H         1 <0>         0.0629 
      31 H3         6.3118    0.0551    2.1795 H         1 <0>         0.0642 
      32 H4         4.6888    0.9069    4.6120 H         1 <0>         0.0966 
      33 H5         6.3071    1.5067    4.1885 H         1 <0>         0.0967 
      34 H6         6.9805   -1.2601    6.5695 H         1 <0>         0.4129 
      35 H7         6.8715    0.7556    7.7892 H         1 <0>         0.1177 
      36 H8         6.6041    1.6299    6.2656 H         1 <0>         0.1174 
      37 H9         2.6568    1.0782    8.6780 H         1 <0>         0.1170 
      38 H10        2.6377   -1.9626    8.8511 H         1 <0>         0.0784 
      39 H11        2.9755   -0.8464   10.1920 H         1 <0>         0.0805 
      40 H12        1.3593   -0.8857    9.4543 H         1 <0>         0.0845 
      41 H13        0.2710    0.2600    7.8400 H         1 <0>         0.4164 
      42 H14       -1.8651    0.1724    6.7518 H         1 <0>         0.1427 
      43 H15       -3.2168   -0.0984    4.6788 H         1 <0>         0.1415 
      44 H16        1.8169   -0.4187    4.5488 H         1 <0>         0.1512 
      45 H17       -0.9504   -2.3849    0.3551 H         1 <0>         0.0736 
      46 H18       -1.7904   -1.0564   -0.4256 H         1 <0>         0.0900 
      47 H19        0.2276   -1.6515   -1.7221 H         1 <0>         0.0715 
      48 H20        1.2447   -1.4387   -0.3023 H         1 <0>         0.0728 
      49 H21        1.3681    0.5608   -1.7465 H         1 <0>         0.0706 
      50 H22       -0.3808    0.7416   -1.7034 H         1 <0>         0.0661 
      51 H23        0.6726    2.3030   -0.1156 H         1 <0>         0.0735 
      52 H24        1.5234    0.9821    0.6751 H         1 <0>         0.0762 
      53 H25       -0.4520    1.6136    2.0002 H         1 <0>         0.0928 
      54 H26       -1.4997    1.4142    0.6026 H         1 <0>         0.0829 
@<TRIPOS>BOND
       1        1        2 1        
       2        1       29 1        
       3        1       30 1        
       4        1       31 1        
       5        2        3 1        
       6        2       32 1        
       7        2       33 1        
       8        3        4 2        
       9        3        5 am       
      10        5        6 1        
      11        5       34 1        
      12        6        7 1        
      13        6       35 1        
      14        6       36 1        
      15        7        8 2        
      16        7        9 1        
      17        9       10 1        
      18       10       11 1        
      19       10       12 1        
      20       10       37 1        
      21       11       38 1        
      22       11       39 1        
      23       11       40 1        
      24       12       13 2        
      25       12       14 am       
      26       14       15 1        
      27       14       41 1        
      28       15       20 ar       
      29       15       16 ar       
      30       16       17 ar       
      31       16       42 1        
      32       17       18 ar       
      33       17       43 1        
      34       18       23 1        
      35       18       19 ar       
      36       19       20 ar       
      37       19       21 1        
      38       20       44 1        
      39       21       22 1        
      40       22       28 1        
      41       22       23 1        
      42       22       24 1        
      43       24       25 1        
      44       24       45 1        
      45       24       46 1        
      46       25       26 1        
      47       25       47 1        
      48       25       48 1        
      49       26       27 1        
      50       26       49 1        
      51       26       50 1        
      52       27       28 1        
      53       27       51 1        
      54       27       52 1        
      55       28       53 1        
      56       28       54 1        

