#        1GCZ_R01_S0001_C0000_L00003_S0001_C0018_G0010_E0001.mol2
#        Tue Jun  6 09:54:51 2017
#        Descriptor:     28    24     3    11     6    12
#        Energy - RMSD - RMSD MassCentre:     -58.9502    999.9999    999.9999
#        Receptor:       1  Surface Point:     1  Conformer:     0
#        Ligand:         3  Surface Point:     1  Conformer:    18
#        BUDE Formal Charge: 0
#        ATOM Count: 58
#        Heavy ATOM Count: 30
@<TRIPOS>MOLECULE
ZINC61580633_1GCZ_R01_S0001_C0000_L00003_S0001_C0018_G0010_E0001
 58 59 0 0 0
SMALL
USER_CHARGES
@<TRIPOS>ATOM
       1 C1         0.5862    1.1970   -0.2956 C.3       1 <0>        -0.1532 
       2 C2        -0.2199    1.1727    0.9999 C.3       1 <0>        -0.1224 
       3 C3        -1.2364    0.0332    0.9448 C.3       1 <0>        -0.1198 
       4 C4        -2.0436    0.0088    2.2420 C.3       1 <0>         0.0610 
       5 O1        -1.1698   -0.2618    3.3412 O.3       1 <0>        -0.3878 
       6 C5        -1.8721   -0.2969    4.5865 C.3       1 <0>         0.0487 
       7 C6        -0.8873   -0.5892    5.7174 C.3       1 <0>         0.1244 
       8 N1        -0.4590   -1.9935    5.6424 N.am      1 <0>        -0.7216 
       9 C7         0.4036   -2.4738    6.5336 C.2       1 <0>         0.5161 
      10 O2         0.7627   -3.6484    6.4718 O.2       1 <0>        -0.5151 
      11 C8         0.9424   -1.5761    7.6217 C.3       1 <0>         0.0490 
      12 O3         1.8206   -0.6053    7.0462 O.3       1 <0>        -0.3194 
      13 C9         2.9425   -1.0472    6.4393 C.2       1 <0>         0.5417 
      14 O4         3.1820   -2.2426    6.3936 O.2       1 <0>        -0.5337 
      15 C10        3.8826   -0.0810    5.8288 C.2       1 <0>        -0.2559 
      16 C11        3.6831    1.3855    5.8152 C.2       1 <0>        -0.0791 
      17 C12        4.6719    2.0276    5.1890 C.2       1 <0>        -0.2585 
      18 S1         5.9171    0.9302    4.5746 S.3       1 <0>         0.3028 
      19 C13        5.0128   -0.4515    5.2116 C.2       1 <0>         0.0893 
      20 N2         5.3855   -1.7650    5.0988 N.am      1 <0>        -0.6099 
      21 C14        6.5168   -2.0851    4.4771 C.2       1 <0>         0.5551 
      22 O5         7.2290   -1.2014    4.0031 O.2       1 <0>        -0.4939 
      23 C15        6.9180   -3.5045    4.3561 C.ar      1 <0>        -0.1466 
      24 C16        8.1150   -3.7966    3.6911 C.ar      1 <0>        -0.0772 
      25 C17        8.5104   -5.1229    3.4805 C.ar      1 <0>        -0.1241 
      26 C18        7.7103   -6.1829    3.9225 C.ar      1 <0>        -0.0446 
      27 C19        6.5399   -5.8939    4.6342 C.ar      1 <0>        -0.1261 
      28 C20        6.1628   -4.5662    4.8683 C.ar      1 <0>        -0.0460 
      29 C21        8.1234   -7.6059    3.6310 C.3       1 <0>        -0.0928 
      30 C22        7.5216   -8.0467    2.2999 C.3       1 <0>        -0.1485 
      31 H1        -0.0843    1.3633   -1.1361 H         1 <0>         0.0567 
      32 H2         1.0975    0.2450   -0.4216 H         1 <0>         0.0554 
      33 H3         1.3190    1.9999   -0.2509 H         1 <0>         0.0557 
      34 H4         0.4511    1.0189    1.8425 H         1 <0>         0.0632 
      35 H5        -0.7430    2.1191    1.1202 H         1 <0>         0.0635 
      36 H6        -1.9085    0.1862    0.1032 H         1 <0>         0.0711 
      37 H7        -0.7143   -0.9139    0.8255 H         1 <0>         0.0704 
      38 H8        -2.5229    0.9744    2.3899 H         1 <0>         0.0498 
      39 H9        -2.8027   -0.7684    2.1830 H         1 <0>         0.0505 
      40 H10       -2.6292   -1.0776    4.5549 H         1 <0>         0.0584 
      41 H11       -2.3493    0.6651    4.7616 H         1 <0>         0.0702 
      42 H12       -1.3703   -0.4088    6.6754 H         1 <0>         0.0872 
      43 H13       -0.0194    0.0595    5.6201 H         1 <0>         0.0805 
      44 H14       -0.8194   -2.5938    4.9145 H         1 <0>         0.4058 
      45 H15        0.1168   -1.0691    8.1165 H         1 <0>         0.1008 
      46 H16        1.4895   -2.1738    8.3478 H         1 <0>         0.0999 
      47 H17        2.8313    1.8621    6.2773 H         1 <0>         0.1557 
      48 H18        4.7005    3.1025    5.0888 H         1 <0>         0.1929 
      49 H19        4.8008   -2.4907    5.4880 H         1 <0>         0.4317 
      50 H20        8.7394   -2.9920    3.3319 H         1 <0>         0.1287 
      51 H21        9.4389   -5.3359    2.9718 H         1 <0>         0.1326 
      52 H22        5.9350   -6.7090    5.0032 H         1 <0>         0.1342 
      53 H23        5.2828   -4.4048    5.4732 H         1 <0>         0.1410 
      54 H24        7.7645   -8.2569    4.4254 H         1 <0>         0.0777 
      55 H25        9.2085   -7.6638    3.5762 H         1 <0>         0.0771 
      56 H26        7.8910   -7.4028    1.5046 H         1 <0>         0.0623 
      57 H27        6.4372   -7.9748    2.3513 H         1 <0>         0.0572 
      58 H28        7.8083   -9.0763    2.0964 H         1 <0>         0.0578 
@<TRIPOS>BOND
       1        1        2 1        
       2        1       31 1        
       3        1       32 1        
       4        1       33 1        
       5        2        3 1        
       6        2       34 1        
       7        2       35 1        
       8        3        4 1        
       9        3       36 1        
      10        3       37 1        
      11        4        5 1        
      12        4       38 1        
      13        4       39 1        
      14        5        6 1        
      15        6        7 1        
      16        6       40 1        
      17        6       41 1        
      18        7        8 1        
      19        7       42 1        
      20        7       43 1        
      21        8        9 am       
      22        8       44 1        
      23        9       10 2        
      24        9       11 1        
      25       11       12 1        
      26       11       45 1        
      27       11       46 1        
      28       12       13 1        
      29       13       14 2        
      30       13       15 1        
      31       15       19 2        
      32       15       16 1        
      33       16       17 2        
      34       16       47 1        
      35       17       18 1        
      36       17       48 1        
      37       18       19 1        
      38       19       20 1        
      39       20       21 am       
      40       20       49 1        
      41       21       22 2        
      42       21       23 1        
      43       23       28 ar       
      44       23       24 ar       
      45       24       25 ar       
      46       24       50 1        
      47       25       26 ar       
      48       25       51 1        
      49       26       27 ar       
      50       26       29 1        
      51       27       28 ar       
      52       27       52 1        
      53       28       53 1        
      54       29       30 1        
      55       29       54 1        
      56       29       55 1        
      57       30       56 1        
      58       30       57 1        
      59       30       58 1        

