#        1GCZ_R01_S0001_C0000_L00012_S0001_C0011_G0010_E0001.mol2
#        Tue Jun  6 09:58:45 2017
#        Descriptor:     14    33    22    10     9    13
#        Energy - RMSD - RMSD MassCentre:     -75.1603    999.9999    999.9999
#        Receptor:       1  Surface Point:     1  Conformer:     0
#        Ligand:        12  Surface Point:     1  Conformer:    11
#        BUDE Formal Charge: 0
#        ATOM Count: 54
#        Heavy ATOM Count: 28
@<TRIPOS>MOLECULE
ZINC61282011_1GCZ_R01_S0001_C0000_L00012_S0001_C0011_G0010_E0001
 54 56 0 0 0
SMALL
USER_CHARGES
@<TRIPOS>ATOM
       1 C1         3.5253    2.4460   12.8369 C.3       1 <0>        -0.1394 
       2 C2         4.1799    2.7440   11.4910 C.3       1 <0>        -0.1416 
       3 C3         3.2604    3.6127   10.6665 C.2       1 <0>         0.5168 
       4 O1         2.1723    3.9628   11.1209 O.2       1 <0>        -0.5327 
       5 N1         3.6272    3.9998    9.4480 N.am      1 <0>        -0.7288 
       6 C4         4.9275    3.5815    8.9050 C.3       1 <0>         0.1281 
       7 C5         4.8472    2.1398    8.4632 C.2       1 <0>         0.4647 
       8 O2         5.4983    1.3064    9.0195 O.2       1 <0>        -0.5000 
       9 O3         4.0395    1.7922    7.4390 O.3       1 <0>        -0.3169 
      10 C6         3.9966    0.4150    7.0562 C.3       1 <0>         0.0729 
      11 C7         5.3902   -0.0398    6.6324 C.3       1 <0>        -0.1704 
      12 C8         3.0394    0.2444    5.9008 C.2       1 <0>         0.5166 
      13 O4         3.4360   -0.2300    4.8375 O.2       1 <0>        -0.4890 
      14 N2         1.7667    0.6071    6.0329 N.am      1 <0>        -0.6633 
      15 C9         0.8686    0.4477    4.9513 C.ar      1 <0>         0.1513 
      16 C10       -0.4765    0.7922    5.1292 C.ar      1 <0>        -0.1318 
      17 C11       -1.4091    0.6554    4.0942 C.ar      1 <0>        -0.0823 
      18 C12       -0.9243    0.1581    2.8787 C.ar      1 <0>         0.0206 
      19 C13        0.4239   -0.1781    2.7092 C.ar      1 <0>         0.0545 
      20 C14        1.3665   -0.0479    3.7360 C.ar      1 <0>        -0.1051 
      21 O5         0.6343   -0.7203    1.4431 O.3       1 <0>        -0.2879 
      22 C15       -0.5511   -0.2143    0.8240 C.3       1 <0>         0.2651 
      23 O6        -1.6440   -0.0585    1.7330 O.3       1 <0>        -0.2965 
      24 C16       -0.9751   -1.2117   -0.3710 C.3       1 <0>        -0.1489 
      25 C17        0.1396   -1.2979   -1.4300 C.3       1 <0>        -0.1151 
      26 C18        0.4795    0.1024   -1.9733 C.3       1 <0>        -0.1246 
      27 C19        0.9109    1.0458   -0.8349 C.3       1 <0>        -0.1168 
      28 C20       -0.1782    1.1642    0.2473 C.3       1 <0>        -0.1129 
      29 H1         2.5899    1.9144   12.6748 H         1 <0>         0.0628 
      30 H2         4.1934    1.8310   13.4361 H         1 <0>         0.0629 
      31 H3         3.3266    3.3804   13.3576 H         1 <0>         0.0642 
      32 H4         4.3661    1.8109   10.9632 H         1 <0>         0.0966 
      33 H5         5.1215    3.2645   11.6523 H         1 <0>         0.0967 
      34 H6         3.0130    4.5809    8.8957 H         1 <0>         0.4129 
      35 H7         5.1838    4.2075    8.0530 H         1 <0>         0.1177 
      36 H8         5.6915    3.6828    9.6729 H         1 <0>         0.1174 
      37 H9         3.6587   -0.1857    7.8979 H         1 <0>         0.1170 
      38 H10        5.7322    0.5699    5.7988 H         1 <0>         0.0784 
      39 H11        6.0770    0.0707    7.4690 H         1 <0>         0.0805 
      40 H12        5.3534   -1.0837    6.3281 H         1 <0>         0.0845 
      41 H13        1.4411    0.9966    6.9059 H         1 <0>         0.4164 
      42 H14       -0.8058    1.1739    6.0844 H         1 <0>         0.1427 
      43 H15       -2.4472    0.9210    4.2297 H         1 <0>         0.1415 
      44 H16        2.4023   -0.3122    3.5825 H         1 <0>         0.1512 
      45 H17       -1.1839   -2.2040    0.0229 H         1 <0>         0.0736 
      46 H18       -1.8900   -0.8417   -0.8289 H         1 <0>         0.0900 
      47 H19       -0.1881   -1.9311   -2.2518 H         1 <0>         0.0715 
      48 H20        1.0298   -1.7476   -0.9954 H         1 <0>         0.0728 
      49 H21        1.2877    0.0232   -2.6974 H         1 <0>         0.0706 
      50 H22       -0.3861    0.5194   -2.4838 H         1 <0>         0.0661 
      51 H23        1.1119    2.0331   -1.2454 H         1 <0>         0.0735 
      52 H24        1.8310    0.6773   -0.3859 H         1 <0>         0.0762 
      53 H25        0.1807    1.7978    1.0555 H         1 <0>         0.0928 
      54 H26       -1.0620    1.6354   -0.1774 H         1 <0>         0.0829 
@<TRIPOS>BOND
       1        1        2 1        
       2        1       29 1        
       3        1       30 1        
       4        1       31 1        
       5        2        3 1        
       6        2       32 1        
       7        2       33 1        
       8        3        4 2        
       9        3        5 am       
      10        5        6 1        
      11        5       34 1        
      12        6        7 1        
      13        6       35 1        
      14        6       36 1        
      15        7        8 2        
      16        7        9 1        
      17        9       10 1        
      18       10       11 1        
      19       10       12 1        
      20       10       37 1        
      21       11       38 1        
      22       11       39 1        
      23       11       40 1        
      24       12       13 2        
      25       12       14 am       
      26       14       15 1        
      27       14       41 1        
      28       15       20 ar       
      29       15       16 ar       
      30       16       17 ar       
      31       16       42 1        
      32       17       18 ar       
      33       17       43 1        
      34       18       23 1        
      35       18       19 ar       
      36       19       20 ar       
      37       19       21 1        
      38       20       44 1        
      39       21       22 1        
      40       22       28 1        
      41       22       23 1        
      42       22       24 1        
      43       24       25 1        
      44       24       45 1        
      45       24       46 1        
      46       25       26 1        
      47       25       47 1        
      48       25       48 1        
      49       26       27 1        
      50       26       49 1        
      51       26       50 1        
      52       27       28 1        
      53       27       51 1        
      54       27       52 1        
      55       28       53 1        
      56       28       54 1        

