#        1GCZ_R01_S0001_C0000_L00012_S0001_C0012_G0010_E0001.mol2
#        Tue Jun  6 14:13:23 2017
#        Descriptor:     17    31    23     8     9    12
#        Energy - RMSD - RMSD MassCentre:     -79.0388    999.9999    999.9999
#        Receptor:       1  Surface Point:     1  Conformer:     0
#        Ligand:        12  Surface Point:     1  Conformer:    12
#        BUDE Formal Charge: 0
#        ATOM Count: 54
#        Heavy ATOM Count: 28
@<TRIPOS>MOLECULE
ZINC61282011_1GCZ_R01_S0001_C0000_L00012_S0001_C0012_G0010_E0001
 54 56 0 0 0
SMALL
USER_CHARGES
@<TRIPOS>ATOM
       1 C1        -2.0033    2.7017   11.6992 C.3       1 <0>        -0.1394 
       2 C2        -0.7292    2.7846   10.8636 C.3       1 <0>        -0.1416 
       3 C3        -0.9571    3.7073    9.6902 C.2       1 <0>         0.5168 
       4 O1        -2.0494    4.2518    9.5381 O.2       1 <0>        -0.5327 
       5 N1         0.0241    3.9314    8.8206 N.am      1 <0>        -0.7288 
       6 C4         1.3294    3.2807    9.0026 C.3       1 <0>         0.1281 
       7 C5         1.2336    1.8348    8.5782 C.2       1 <0>         0.4647 
       8 O2         1.3713    0.9640    9.3849 O.2       1 <0>        -0.5000 
       9 O3         0.9923    1.5255    7.2865 O.3       1 <0>        -0.3169 
      10 C6         0.9100    0.1425    6.9320 C.3       1 <0>         0.0729 
      11 C7         2.2298   -0.5479    7.2638 C.3       1 <0>        -0.1704 
      12 C8         0.6364    0.0187    5.4521 C.2       1 <0>         0.5166 
      13 O4         1.4192   -0.5973    4.7305 O.2       1 <0>        -0.4890 
      14 N2        -0.4518    0.5759    4.9285 N.am      1 <0>        -0.6633 
      15 C9        -0.7097    0.4606    3.5421 C.ar      1 <0>         0.1513 
      16 C10       -1.8616    1.0555    3.0140 C.ar      1 <0>        -0.1318 
      17 C11       -2.1669    0.9736    1.6502 C.ar      1 <0>        -0.0823 
      18 C12       -1.2613    0.2680    0.8489 C.ar      1 <0>         0.0206 
      19 C13       -0.1091   -0.3183    1.3860 C.ar      1 <0>         0.0545 
      20 C14        0.2071   -0.2456    2.7477 C.ar      1 <0>        -0.1051 
      21 O5         0.5801   -1.0246    0.4026 O.3       1 <0>        -0.2879 
      22 C15       -0.0098   -0.3875   -0.7333 C.3       1 <0>         0.2651 
      23 O6        -1.3489    0.0582   -0.5021 O.3       1 <0>        -0.2965 
      24 C16       -0.0249   -1.3839   -2.0084 C.3       1 <0>        -0.1489 
      25 C17       -0.4767   -0.6414   -3.2796 C.3       1 <0>        -0.1151 
      26 C18        0.4261    0.5778   -3.5442 C.3       1 <0>        -0.1246 
      27 C19        0.4229    1.5380   -2.3401 C.3       1 <0>        -0.1168 
      28 C20        0.8767    0.8313   -1.0494 C.3       1 <0>        -0.1129 
      29 H1        -2.8111    2.3028   11.0891 H         1 <0>         0.0628 
      30 H2        -1.8350    2.0472   12.5519 H         1 <0>         0.0629 
      31 H3        -2.2708    3.6958   12.0513 H         1 <0>         0.0642 
      32 H4        -0.4686    1.7930   10.4991 H         1 <0>         0.0966 
      33 H5         0.0824    3.1716   11.4761 H         1 <0>         0.0967 
      34 H6        -0.1273    4.5484    8.0355 H         1 <0>         0.4129 
      35 H7         2.0760    3.7877    8.3948 H         1 <0>         0.1177 
      36 H8         1.6182    3.3321   10.0502 H         1 <0>         0.1174 
      37 H9         0.1034   -0.3282    7.4899 H         1 <0>         0.1170 
      38 H10        3.0374   -0.0682    6.7149 H         1 <0>         0.0784 
      39 H11        2.4204   -0.4702    8.3321 H         1 <0>         0.0805 
      40 H12        2.1708   -1.5967    6.9806 H         1 <0>         0.0845 
      41 H13       -1.0946    1.0817    5.5210 H         1 <0>         0.4164 
      42 H14       -2.5315    1.5918    3.6698 H         1 <0>         0.1427 
      43 H15       -3.0550    1.4323    1.2412 H         1 <0>         0.1415 
      44 H16        1.1026   -0.7045    3.1402 H         1 <0>         0.1512 
      45 H17        0.9644   -1.8089   -2.1642 H         1 <0>         0.0736 
      46 H18       -0.7061   -2.2065   -1.8011 H         1 <0>         0.0900 
      47 H19       -1.5047   -0.3064   -3.1589 H         1 <0>         0.0715 
      48 H20       -0.4420   -1.3143   -4.1339 H         1 <0>         0.0728 
      49 H21        1.4439    0.2410   -3.7299 H         1 <0>         0.0706 
      50 H22        0.0821    1.1050   -4.4316 H         1 <0>         0.0661 
      51 H23       -0.5827    1.9278   -2.1963 H         1 <0>         0.0735 
      52 H24        1.0810    2.3799   -2.5443 H         1 <0>         0.0762 
      53 H25        1.9061    0.4976   -1.1612 H         1 <0>         0.0928 
      54 H26        0.8431    1.5344   -0.2198 H         1 <0>         0.0829 
@<TRIPOS>BOND
       1        1        2 1        
       2        1       29 1        
       3        1       30 1        
       4        1       31 1        
       5        2        3 1        
       6        2       32 1        
       7        2       33 1        
       8        3        4 2        
       9        3        5 am       
      10        5        6 1        
      11        5       34 1        
      12        6        7 1        
      13        6       35 1        
      14        6       36 1        
      15        7        8 2        
      16        7        9 1        
      17        9       10 1        
      18       10       11 1        
      19       10       12 1        
      20       10       37 1        
      21       11       38 1        
      22       11       39 1        
      23       11       40 1        
      24       12       13 2        
      25       12       14 am       
      26       14       15 1        
      27       14       41 1        
      28       15       20 ar       
      29       15       16 ar       
      30       16       17 ar       
      31       16       42 1        
      32       17       18 ar       
      33       17       43 1        
      34       18       23 1        
      35       18       19 ar       
      36       19       20 ar       
      37       19       21 1        
      38       20       44 1        
      39       21       22 1        
      40       22       28 1        
      41       22       23 1        
      42       22       24 1        
      43       24       25 1        
      44       24       45 1        
      45       24       46 1        
      46       25       26 1        
      47       25       47 1        
      48       25       48 1        
      49       26       27 1        
      50       26       49 1        
      51       26       50 1        
      52       27       28 1        
      53       27       51 1        
      54       27       52 1        
      55       28       53 1        
      56       28       54 1        

