#        1GCZ_R01_S0001_C0000_L00012_S0001_C0013_G0010_E0001.mol2
#        Tue Jun  6 09:58:46 2017
#        Descriptor:     36    24     8     9     8    12
#        Energy - RMSD - RMSD MassCentre:     -78.6106    999.9999    999.9999
#        Receptor:       1  Surface Point:     1  Conformer:     0
#        Ligand:        12  Surface Point:     1  Conformer:    13
#        BUDE Formal Charge: 0
#        ATOM Count: 54
#        Heavy ATOM Count: 28
@<TRIPOS>MOLECULE
ZINC61282011_1GCZ_R01_S0001_C0000_L00012_S0001_C0013_G0010_E0001
 54 56 0 0 0
SMALL
USER_CHARGES
@<TRIPOS>ATOM
       1 C1         4.9411    0.1823    4.8020 C.3       1 <0>        -0.1394 
       2 C2         4.4023    0.3614    6.2185 C.3       1 <0>        -0.1416 
       3 C3         4.5818   -0.9240    6.9903 C.2       1 <0>         0.5168 
       4 O1         5.0982   -1.9004    6.4492 O.2       1 <0>        -0.5327 
       5 N1         4.1811   -1.0005    8.2563 N.am      1 <0>        -0.7288 
       6 C4         3.5641    0.1665    8.9030 C.3       1 <0>         0.1281 
       7 C5         2.1400    0.3128    8.4224 C.2       1 <0>         0.4647 
       8 O2         1.8213    1.2668    7.7775 O.2       1 <0>        -0.5000 
       9 O3         1.2265   -0.6350    8.7215 O.3       1 <0>        -0.3169 
      10 C6        -0.1094   -0.4533    8.2447 C.3       1 <0>         0.0729 
      11 C7        -0.9907   -1.5911    8.7518 C.3       1 <0>        -0.1704 
      12 C8        -0.1083   -0.4534    6.7347 C.2       1 <0>         0.5166 
      13 O4         0.9407   -0.6384    6.1197 O.2       1 <0>        -0.4890 
      14 N2        -1.2423   -0.2535    6.0692 N.am      1 <0>        -0.6633 
      15 C9        -1.2429   -0.2534    4.6543 C.ar      1 <0>         0.1513 
      16 C10       -2.4563   -0.0884    3.9759 C.ar      1 <0>        -0.1318 
      17 C11       -2.5163   -0.0802    2.5773 C.ar      1 <0>        -0.0823 
      18 C12       -1.3027   -0.2450    1.8992 C.ar      1 <0>         0.0206 
      19 C13       -0.0939   -0.4034    2.5870 C.ar      1 <0>         0.0545 
      20 C14       -0.0197   -0.4154    3.9850 C.ar      1 <0>        -0.1051 
      21 O5         0.9495   -0.6270    1.6912 O.3       1 <0>        -0.2879 
      22 C15        0.3058   -0.1121    0.5227 C.3       1 <0>         0.2651 
      23 O6        -1.1155   -0.2689    0.5421 O.3       1 <0>        -0.2965 
      24 C16        0.8955   -0.8228   -0.7273 C.3       1 <0>        -0.1489 
      25 C17        0.9902    0.1136   -1.9461 C.3       1 <0>        -0.1151 
      26 C18       -0.1585    1.1393   -1.9313 C.3       1 <0>        -0.1246 
      27 C19       -0.0403    2.0820   -0.7193 C.3       1 <0>        -0.1168 
      28 C20        0.6440    1.3895    0.4738 C.3       1 <0>        -0.1129 
      29 H1         4.3875   -0.6094    4.3014 H         1 <0>         0.0628 
      30 H2         4.8239    1.1125    4.2499 H         1 <0>         0.0629 
      31 H3         5.9952   -0.0835    4.8464 H         1 <0>         0.0642 
      32 H4         3.3448    0.6134    6.1756 H         1 <0>         0.0966 
      33 H5         4.9468    1.1613    6.7159 H         1 <0>         0.0967 
      34 H6         4.3006   -1.8597    8.7736 H         1 <0>         0.4129 
      35 H7         3.5695    0.0290    9.9822 H         1 <0>         0.1177 
      36 H8         4.1259    1.0626    8.6482 H         1 <0>         0.1174 
      37 H9        -0.4983    0.4963    8.6062 H         1 <0>         0.1170 
      38 H10       -0.5938   -2.5410    8.4000 H         1 <0>         0.0784 
      39 H11       -1.0023   -1.5828    9.8397 H         1 <0>         0.0805 
      40 H12       -2.0035   -1.4594    8.3767 H         1 <0>         0.0845 
      41 H13       -2.1036   -0.1016    6.5742 H         1 <0>         0.4164 
      42 H14       -3.3683    0.0372    4.5405 H         1 <0>         0.1427 
      43 H15       -3.4516    0.0474    2.0523 H         1 <0>         0.1415 
      44 H16        0.9244   -0.5378    4.4949 H         1 <0>         0.1512 
      45 H17        1.8822   -1.2136   -0.4878 H         1 <0>         0.0736 
      46 H18        0.2558   -1.6706   -0.9634 H         1 <0>         0.0900 
      47 H19        0.9345   -0.4733   -2.8605 H         1 <0>         0.0715 
      48 H20        1.9454    0.6343   -1.9401 H         1 <0>         0.0728 
      49 H21       -0.1300    1.7277   -2.8460 H         1 <0>         0.0706 
      50 H22       -1.1144    0.6208   -1.8978 H         1 <0>         0.0661 
      51 H23       -1.0350    2.4051   -0.4192 H         1 <0>         0.0735 
      52 H24        0.5273    2.9667   -1.0005 H         1 <0>         0.0762 
      53 H25        1.7225    1.5043    0.3903 H         1 <0>         0.0928 
      54 H26        0.3293    1.8668    1.3995 H         1 <0>         0.0829 
@<TRIPOS>BOND
       1        1        2 1        
       2        1       29 1        
       3        1       30 1        
       4        1       31 1        
       5        2        3 1        
       6        2       32 1        
       7        2       33 1        
       8        3        4 2        
       9        3        5 am       
      10        5        6 1        
      11        5       34 1        
      12        6        7 1        
      13        6       35 1        
      14        6       36 1        
      15        7        8 2        
      16        7        9 1        
      17        9       10 1        
      18       10       11 1        
      19       10       12 1        
      20       10       37 1        
      21       11       38 1        
      22       11       39 1        
      23       11       40 1        
      24       12       13 2        
      25       12       14 am       
      26       14       15 1        
      27       14       41 1        
      28       15       20 ar       
      29       15       16 ar       
      30       16       17 ar       
      31       16       42 1        
      32       17       18 ar       
      33       17       43 1        
      34       18       23 1        
      35       18       19 ar       
      36       19       20 ar       
      37       19       21 1        
      38       20       44 1        
      39       21       22 1        
      40       22       28 1        
      41       22       23 1        
      42       22       24 1        
      43       24       25 1        
      44       24       45 1        
      45       24       46 1        
      46       25       26 1        
      47       25       47 1        
      48       25       48 1        
      49       26       27 1        
      50       26       49 1        
      51       26       50 1        
      52       27       28 1        
      53       27       51 1        
      54       27       52 1        
      55       28       53 1        
      56       28       54 1        

