#        1GCZ_R01_S0001_C0000_L00012_S0001_C0013_G0010_E0001.mol2
#        Tue Jun  6 14:13:25 2017
#        Descriptor:     35    24     7     9     8    12
#        Energy - RMSD - RMSD MassCentre:     -78.3451    999.9999    999.9999
#        Receptor:       1  Surface Point:     1  Conformer:     0
#        Ligand:        12  Surface Point:     1  Conformer:    13
#        BUDE Formal Charge: 0
#        ATOM Count: 54
#        Heavy ATOM Count: 28
@<TRIPOS>MOLECULE
ZINC61282011_1GCZ_R01_S0001_C0000_L00012_S0001_C0013_G0010_E0001
 54 56 0 0 0
SMALL
USER_CHARGES
@<TRIPOS>ATOM
       1 C1         4.9978    0.0755    4.4704 C.3       1 <0>        -0.1394 
       2 C2         4.5841    0.2332    5.9308 C.3       1 <0>        -0.1416 
       3 C3         4.7964   -1.0737    6.6569 C.2       1 <0>         0.5168 
       4 O1         5.2419   -2.0484    6.0532 O.2       1 <0>        -0.5327 
       5 N1         4.5016   -1.1709    7.9502 N.am      1 <0>        -0.7288 
       6 C4         3.9694   -0.0060    8.6716 C.3       1 <0>         0.1281 
       7 C5         2.5140    0.1832    8.3162 C.2       1 <0>         0.4647 
       8 O2         2.1655    1.1590    7.7212 O.2       1 <0>        -0.5000 
       9 O3         1.6061   -0.7508    8.6708 O.3       1 <0>        -0.3169 
      10 C6         0.2398   -0.5281    8.3124 C.3       1 <0>         0.0729 
      11 C7        -0.6232   -1.6576    8.8674 C.3       1 <0>        -0.1704 
      12 C8         0.1143   -0.4928    6.8080 C.2       1 <0>         0.5166 
      13 O4         1.1032   -0.6866    6.1029 O.2       1 <0>        -0.4890 
      14 N2        -1.0664   -0.2520    6.2451 N.am      1 <0>        -0.6633 
      15 C9        -1.1856   -0.2187    4.8356 C.ar      1 <0>         0.1513 
      16 C10       -2.4472   -0.0107    4.2656 C.ar      1 <0>        -0.1318 
      17 C11       -2.6241    0.0317    2.8776 C.ar      1 <0>        -0.0823 
      18 C12       -1.4760   -0.1441    2.0962 C.ar      1 <0>         0.0206 
      19 C13       -0.2179   -0.3456    2.6760 C.ar      1 <0>         0.0545 
      20 C14       -0.0271   -0.3921    4.0621 C.ar      1 <0>        -0.1051 
      21 O5         0.7409   -0.5712    1.6907 O.3       1 <0>        -0.2879 
      22 C15        0.0142   -0.0148    0.5921 C.3       1 <0>         0.2651 
      23 O6        -1.4039   -0.1403    0.7279 O.3       1 <0>        -0.2965 
      24 C16        0.4797   -0.7089   -0.7183 C.3       1 <0>        -0.1489 
      25 C17        0.4945    0.2536   -1.9203 C.3       1 <0>        -0.1151 
      26 C18       -0.6238    1.3040   -1.7865 C.3       1 <0>        -0.1246 
      27 C19       -0.3816    2.2151   -0.5688 C.3       1 <0>        -0.1168 
      28 C20        0.3833    1.4796    0.5472 C.3       1 <0>        -0.1129 
      29 H1         4.3852   -0.6917    4.0014 H         1 <0>         0.0628 
      30 H2         4.8571    1.0208    3.9503 H         1 <0>         0.0629 
      31 H3         6.0451   -0.2147    4.4200 H         1 <0>         0.0642 
      32 H4         3.5331    0.5097    5.9828 H         1 <0>         0.0966 
      33 H5         5.1875    1.0088    6.3976 H         1 <0>         0.0967 
      34 H6         4.6432   -2.0445    8.4369 H         1 <0>         0.4129 
      35 H7         4.0619   -0.1690    9.7433 H         1 <0>         0.1177 
      36 H8         4.5294    0.8830    8.3898 H         1 <0>         0.1174 
      37 H9        -0.0944    0.4211    8.7259 H         1 <0>         0.1170 
      38 H10       -0.2803   -2.6076    8.4629 H         1 <0>         0.0784 
      39 H11       -0.5433   -1.6747    9.9523 H         1 <0>         0.0805 
      40 H12       -1.6605   -1.4946    8.5821 H         1 <0>         0.0845 
      41 H13       -1.8784   -0.0929    6.8240 H         1 <0>         0.4164 
      42 H14       -3.3054    0.1219    4.9077 H         1 <0>         0.1427 
      43 H15       -3.5968    0.1924    2.4363 H         1 <0>         0.1415 
      44 H16        0.9531   -0.5475    4.4878 H         1 <0>         0.1512 
      45 H17        1.4732   -1.1271   -0.5713 H         1 <0>         0.0736 
      46 H18       -0.1979   -1.5364   -0.9177 H         1 <0>         0.0900 
      47 H19        0.3481   -0.3103   -2.8391 H         1 <0>         0.0715 
      48 H20        1.4591    0.7526   -1.9837 H         1 <0>         0.0728 
      49 H21       -0.6579    1.9130   -2.6874 H         1 <0>         0.0706 
      50 H22       -1.5858    0.8063   -1.6836 H         1 <0>         0.0661 
      51 H23       -1.3395    2.5531   -0.1789 H         1 <0>         0.0735 
      52 H24        0.1816    3.0933   -0.8777 H         1 <0>         0.0762 
      53 H25        1.4535    1.5723    0.3755 H         1 <0>         0.0928 
      54 H26        0.1590    1.9419    1.5062 H         1 <0>         0.0829 
@<TRIPOS>BOND
       1        1        2 1        
       2        1       29 1        
       3        1       30 1        
       4        1       31 1        
       5        2        3 1        
       6        2       32 1        
       7        2       33 1        
       8        3        4 2        
       9        3        5 am       
      10        5        6 1        
      11        5       34 1        
      12        6        7 1        
      13        6       35 1        
      14        6       36 1        
      15        7        8 2        
      16        7        9 1        
      17        9       10 1        
      18       10       11 1        
      19       10       12 1        
      20       10       37 1        
      21       11       38 1        
      22       11       39 1        
      23       11       40 1        
      24       12       13 2        
      25       12       14 am       
      26       14       15 1        
      27       14       41 1        
      28       15       20 ar       
      29       15       16 ar       
      30       16       17 ar       
      31       16       42 1        
      32       17       18 ar       
      33       17       43 1        
      34       18       23 1        
      35       18       19 ar       
      36       19       20 ar       
      37       19       21 1        
      38       20       44 1        
      39       21       22 1        
      40       22       28 1        
      41       22       23 1        
      42       22       24 1        
      43       24       25 1        
      44       24       45 1        
      45       24       46 1        
      46       25       26 1        
      47       25       47 1        
      48       25       48 1        
      49       26       27 1        
      50       26       49 1        
      51       26       50 1        
      52       27       28 1        
      53       27       51 1        
      54       27       52 1        
      55       28       53 1        
      56       28       54 1        

