#        1GCZ_R01_S0001_C0000_L00012_S0001_C0014_G0010_E0001.mol2
#        Tue Jun  6 09:58:47 2017
#        Descriptor:     32    23     4    10     8    12
#        Energy - RMSD - RMSD MassCentre:     -64.5791    999.9999    999.9999
#        Receptor:       1  Surface Point:     1  Conformer:     0
#        Ligand:        12  Surface Point:     1  Conformer:    14
#        BUDE Formal Charge: 0
#        ATOM Count: 54
#        Heavy ATOM Count: 28
@<TRIPOS>MOLECULE
ZINC61282011_1GCZ_R01_S0001_C0000_L00012_S0001_C0014_G0010_E0001
 54 56 0 0 0
SMALL
USER_CHARGES
@<TRIPOS>ATOM
       1 C1         5.6927   -0.2247    3.1599 C.3       1 <0>        -0.1394 
       2 C2         5.8056   -0.1025    4.6769 C.3       1 <0>        -0.1416 
       3 C3         6.1256   -1.4550    5.2673 C.2       1 <0>         0.5168 
       4 O1         6.2522   -2.4334    4.5327 O.2       1 <0>        -0.5327 
       5 N1         6.2706   -1.5884    6.5827 N.am      1 <0>        -0.7288 
       6 C4         6.1193   -0.4191    7.4605 C.3       1 <0>         0.1281 
       7 C5         4.6528   -0.0952    7.6177 C.2       1 <0>         0.4647 
       8 O2         4.2180    0.9327    7.1909 O.2       1 <0>        -0.5000 
       9 O3         3.8325   -0.9675    8.2409 O.3       1 <0>        -0.3169 
      10 C6         2.4516   -0.6175    8.3661 C.3       1 <0>         0.0729 
      11 C7         1.7220   -1.6976    9.1597 C.3       1 <0>        -0.1704 
      12 C8         1.8361   -0.5015    6.9921 C.2       1 <0>         0.5166 
      13 O4         2.5114   -0.7421    5.9926 O.2       1 <0>        -0.4890 
      14 N2         0.5631   -0.1390    6.8626 N.am      1 <0>        -0.6633 
      15 C9        -0.0151   -0.0300    5.5758 C.ar      1 <0>         0.1513 
      16 C10       -1.3695    0.3067    5.4664 C.ar      1 <0>        -0.1318 
      17 C11       -1.9938    0.4286    4.2193 C.ar      1 <0>        -0.0823 
      18 C12       -1.1930    0.1965    3.0948 C.ar      1 <0>         0.0206 
      19 C13        0.1620   -0.1341    3.2148 C.ar      1 <0>         0.0545 
      20 C14        0.7983   -0.2609    4.4553 C.ar      1 <0>        -0.1051 
      21 O5         0.7127   -0.3907    1.9611 O.3       1 <0>        -0.2879 
      22 C15       -0.2836    0.2740    1.1799 C.3       1 <0>         0.2651 
      23 O6        -1.5806    0.2586    1.7821 O.3       1 <0>        -0.2965 
      24 C16       -0.3051   -0.4259   -0.2136 C.3       1 <0>        -0.1489 
      25 C17       -0.6735    0.5744   -1.3250 C.3       1 <0>        -0.1151 
      26 C18        0.4365    1.6283   -1.4944 C.3       1 <0>        -0.1246 
      27 C19        1.1443    1.9039   -0.1548 C.3       1 <0>        -0.1168 
      28 C20        0.1863    1.7338    1.0388 C.3       1 <0>        -0.1129 
      29 H1         4.8906   -0.9165    2.9110 H         1 <0>         0.0628 
      30 H2         5.4752    0.7522    2.7333 H         1 <0>         0.0629 
      31 H3         6.6318   -0.5968    2.7557 H         1 <0>         0.0642 
      32 H4         4.8623    0.2561    5.0834 H         1 <0>         0.0966 
      33 H5         6.5991    0.5985    4.9268 H         1 <0>         0.0967 
      34 H6         6.4847   -2.4925    6.9788 H         1 <0>         0.4129 
      35 H7         6.5480   -0.6391    8.4359 H         1 <0>         0.1177 
      36 H8         6.6333    0.4336    7.0219 H         1 <0>         0.1174 
      37 H9         2.3637    0.3354    8.8837 H         1 <0>         0.1170 
      38 H10        1.8212   -2.6524    8.6476 H         1 <0>         0.0784 
      39 H11        2.1568   -1.7720   10.1543 H         1 <0>         0.0805 
      40 H12        0.6688   -1.4372    9.2421 H         1 <0>         0.0845 
      41 H13        0.0087    0.0585    7.6833 H         1 <0>         0.4164 
      42 H14       -1.9486    0.4787    6.3615 H         1 <0>         0.1427 
      43 H15       -3.0385    0.6886    4.1331 H         1 <0>         0.1415 
      44 H16        1.8455   -0.5156    4.5244 H         1 <0>         0.1512 
      45 H17        0.6656   -0.8687   -0.4259 H         1 <0>         0.0736 
      46 H18       -1.0346   -1.2326   -0.1880 H         1 <0>         0.0900 
      47 H19       -1.6058    1.0739   -1.0699 H         1 <0>         0.0715 
      48 H20       -0.8228    0.0462   -2.2643 H         1 <0>         0.0728 
      49 H21        1.1667    1.2716   -2.2178 H         1 <0>         0.0706 
      50 H22        0.0107    2.5529   -1.8786 H         1 <0>         0.0661 
      51 H23        1.5309    2.9210   -0.1572 H         1 <0>         0.0735 
      52 H24        1.9883    1.2264   -0.0429 H         1 <0>         0.0762 
      53 H25        0.6921    2.0305    1.9552 H         1 <0>         0.0928 
      54 H26       -0.6751    2.3855    0.9084 H         1 <0>         0.0829 
@<TRIPOS>BOND
       1        1        2 1        
       2        1       29 1        
       3        1       30 1        
       4        1       31 1        
       5        2        3 1        
       6        2       32 1        
       7        2       33 1        
       8        3        4 2        
       9        3        5 am       
      10        5        6 1        
      11        5       34 1        
      12        6        7 1        
      13        6       35 1        
      14        6       36 1        
      15        7        8 2        
      16        7        9 1        
      17        9       10 1        
      18       10       11 1        
      19       10       12 1        
      20       10       37 1        
      21       11       38 1        
      22       11       39 1        
      23       11       40 1        
      24       12       13 2        
      25       12       14 am       
      26       14       15 1        
      27       14       41 1        
      28       15       20 ar       
      29       15       16 ar       
      30       16       17 ar       
      31       16       42 1        
      32       17       18 ar       
      33       17       43 1        
      34       18       23 1        
      35       18       19 ar       
      36       19       20 ar       
      37       19       21 1        
      38       20       44 1        
      39       21       22 1        
      40       22       28 1        
      41       22       23 1        
      42       22       24 1        
      43       24       25 1        
      44       24       45 1        
      45       24       46 1        
      46       25       26 1        
      47       25       47 1        
      48       25       48 1        
      49       26       27 1        
      50       26       49 1        
      51       26       50 1        
      52       27       28 1        
      53       27       51 1        
      54       27       52 1        
      55       28       53 1        
      56       28       54 1        

