#        1GCZ_R01_S0001_C0000_L00012_S0001_C0014_G0010_E0001.mol2
#        Tue Jun  6 14:13:27 2017
#        Descriptor:     17    22    10    11     5    14
#        Energy - RMSD - RMSD MassCentre:     -60.3331    999.9999    999.9999
#        Receptor:       1  Surface Point:     1  Conformer:     0
#        Ligand:        12  Surface Point:     1  Conformer:    14
#        BUDE Formal Charge: 0
#        ATOM Count: 54
#        Heavy ATOM Count: 28
@<TRIPOS>MOLECULE
ZINC61282011_1GCZ_R01_S0001_C0000_L00012_S0001_C0014_G0010_E0001
 54 56 0 0 0
SMALL
USER_CHARGES
@<TRIPOS>ATOM
       1 C1        -0.4847   -3.4097    7.4428 C.3       1 <0>        -0.1394 
       2 C2        -0.2984   -1.9175    7.7029 C.3       1 <0>        -0.1416 
       3 C3        -1.0941   -1.1280    6.6912 C.2       1 <0>         0.5168 
       4 O1        -1.7544   -1.7135    5.8344 O.2       1 <0>        -0.5327 
       5 N1        -1.0809    0.2015    6.7264 N.am      1 <0>        -0.7288 
       6 C4        -0.2919    0.9011    7.7504 C.3       1 <0>         0.1281 
       7 C5         1.1698    0.8598    7.3737 C.2       1 <0>         0.4647 
       8 O2         1.9469    0.2612    8.0560 O.2       1 <0>        -0.5000 
       9 O3         1.5990    1.4996    6.2651 O.3       1 <0>        -0.3169 
      10 C6         2.9919    1.4324    5.9487 C.3       1 <0>         0.0729 
      11 C7         3.2743    2.2764    4.7091 C.3       1 <0>        -0.1704 
      12 C8         3.3769   -0.0024    5.6779 C.2       1 <0>         0.5166 
      13 O4         2.5217   -0.8859    5.7092 O.2       1 <0>        -0.4890 
      14 N2         4.6415   -0.3111    5.4053 N.am      1 <0>        -0.6633 
      15 C9         5.0038   -1.6550    5.1512 C.ar      1 <0>         0.1513 
      16 C10        6.3317   -1.9492    4.8197 C.ar      1 <0>        -0.1318 
      17 C11        6.7465   -3.2605    4.5584 C.ar      1 <0>        -0.0823 
      18 C12        5.7652   -4.2550    4.6467 C.ar      1 <0>         0.0206 
      19 C13        4.4412   -3.9511    4.9847 C.ar      1 <0>         0.0545 
      20 C14        4.0127   -2.6444    5.2466 C.ar      1 <0>        -0.1051 
      21 O5         3.6499   -5.0964    4.9278 O.3       1 <0>        -0.2879 
      22 C15        4.7060   -6.0572    5.0071 C.3       1 <0>         0.2651 
      23 O6         5.9346   -5.5984    4.4370 O.3       1 <0>        -0.2965 
      24 C16        4.2002   -7.3438    4.2854 C.3       1 <0>        -0.1489 
      25 C17        4.8019   -8.6070    4.9286 C.3       1 <0>        -0.1151 
      26 C18        4.2676   -8.7920    6.3610 C.3       1 <0>        -0.1246 
      27 C19        3.9707   -7.4316    7.0189 C.3       1 <0>        -0.1168 
      28 C20        4.9216   -6.3339    6.5066 C.3       1 <0>        -0.1129 
      29 H1        -0.1241   -3.6510    6.4450 H         1 <0>         0.0628 
      30 H2         0.0781   -3.9786    8.1799 H         1 <0>         0.0629 
      31 H3        -1.5405   -3.6613    7.5182 H         1 <0>         0.0642 
      32 H4         0.7555   -1.6622    7.6139 H         1 <0>         0.0966 
      33 H5        -0.6472   -1.6771    8.7050 H         1 <0>         0.0967 
      34 H6        -1.6128    0.7306    6.0502 H         1 <0>         0.4129 
      35 H7        -0.6193    1.9365    7.8169 H         1 <0>         0.1177 
      36 H8        -0.4315    0.4136    8.7129 H         1 <0>         0.1174 
      37 H9         3.5736    1.8112    6.7864 H         1 <0>         0.1170 
      38 H10        2.6827    1.9043    3.8753 H         1 <0>         0.0784 
      39 H11        3.0094    3.3126    4.9087 H         1 <0>         0.0805 
      40 H12        4.3318    2.2130    4.4611 H         1 <0>         0.0845 
      41 H13        5.3437    0.4143    5.3796 H         1 <0>         0.4164 
      42 H14        7.0557   -1.1497    4.7649 H         1 <0>         0.1427 
      43 H15        7.7707   -3.4891    4.3029 H         1 <0>         0.1415 
      44 H16        2.9861   -2.4331    5.5069 H         1 <0>         0.1512 
      45 H17        3.1142   -7.3939    4.3254 H         1 <0>         0.0736 
      46 H18        4.4874   -7.2922    3.2373 H         1 <0>         0.0900 
      47 H19        5.8858   -8.5180    4.9593 H         1 <0>         0.0715 
      48 H20        4.5547   -9.4812    4.3302 H         1 <0>         0.0728 
      49 H21        3.3542   -9.3825    6.3331 H         1 <0>         0.0706 
      50 H22        4.9971   -9.3344    6.9589 H         1 <0>         0.0661 
      51 H23        4.0834   -7.5236    8.0972 H         1 <0>         0.0735 
      52 H24        2.9411   -7.1453    6.8141 H         1 <0>         0.0762 
      53 H25        4.7477   -5.4149    7.0622 H         1 <0>         0.0928 
      54 H26        5.9521   -6.6371    6.6793 H         1 <0>         0.0829 
@<TRIPOS>BOND
       1        1        2 1        
       2        1       29 1        
       3        1       30 1        
       4        1       31 1        
       5        2        3 1        
       6        2       32 1        
       7        2       33 1        
       8        3        4 2        
       9        3        5 am       
      10        5        6 1        
      11        5       34 1        
      12        6        7 1        
      13        6       35 1        
      14        6       36 1        
      15        7        8 2        
      16        7        9 1        
      17        9       10 1        
      18       10       11 1        
      19       10       12 1        
      20       10       37 1        
      21       11       38 1        
      22       11       39 1        
      23       11       40 1        
      24       12       13 2        
      25       12       14 am       
      26       14       15 1        
      27       14       41 1        
      28       15       20 ar       
      29       15       16 ar       
      30       16       17 ar       
      31       16       42 1        
      32       17       18 ar       
      33       17       43 1        
      34       18       23 1        
      35       18       19 ar       
      36       19       20 ar       
      37       19       21 1        
      38       20       44 1        
      39       21       22 1        
      40       22       28 1        
      41       22       23 1        
      42       22       24 1        
      43       24       25 1        
      44       24       45 1        
      45       24       46 1        
      46       25       26 1        
      47       25       47 1        
      48       25       48 1        
      49       26       27 1        
      50       26       49 1        
      51       26       50 1        
      52       27       28 1        
      53       27       51 1        
      54       27       52 1        
      55       28       53 1        
      56       28       54 1        

