#        1GCZ_R01_S0001_C0000_L00012_S0001_C0015_G0010_E0001.mol2
#        Tue Jun  6 09:58:48 2017
#        Descriptor:     17    31    23     8     9    12
#        Energy - RMSD - RMSD MassCentre:     -81.9852    999.9999    999.9999
#        Receptor:       1  Surface Point:     1  Conformer:     0
#        Ligand:        12  Surface Point:     1  Conformer:    15
#        BUDE Formal Charge: 0
#        ATOM Count: 54
#        Heavy ATOM Count: 28
@<TRIPOS>MOLECULE
ZINC61282011_1GCZ_R01_S0001_C0000_L00012_S0001_C0015_G0010_E0001
 54 56 0 0 0
SMALL
USER_CHARGES
@<TRIPOS>ATOM
       1 C1        -1.9920    2.6654   11.6739 C.3       1 <0>        -0.1394 
       2 C2        -0.7178    2.7484   10.8384 C.3       1 <0>        -0.1416 
       3 C3        -0.9457    3.6710    9.6650 C.2       1 <0>         0.5168 
       4 O1        -2.0380    4.2156    9.5129 O.2       1 <0>        -0.5327 
       5 N1         0.0354    3.8952    8.7954 N.am      1 <0>        -0.7288 
       6 C4         1.3408    3.2445    8.9773 C.3       1 <0>         0.1281 
       7 C5         1.2449    1.7985    8.5529 C.2       1 <0>         0.4647 
       8 O2         1.3826    0.9278    9.3596 O.2       1 <0>        -0.5000 
       9 O3         1.0036    1.4892    7.2612 O.3       1 <0>        -0.3169 
      10 C6         0.9214    0.1063    6.9067 C.3       1 <0>         0.0729 
      11 C7         2.2412   -0.5842    7.2385 C.3       1 <0>        -0.1704 
      12 C8         0.6477   -0.0175    5.4268 C.2       1 <0>         0.5166 
      13 O4         1.4305   -0.6335    4.7053 O.2       1 <0>        -0.4890 
      14 N2        -0.4405    0.5397    4.9033 N.am      1 <0>        -0.6633 
      15 C9        -0.6983    0.4244    3.5168 C.ar      1 <0>         0.1513 
      16 C10       -1.8741    0.9782    2.9966 C.ar      1 <0>        -0.1318 
      17 C11       -2.1805    0.8942    1.6332 C.ar      1 <0>        -0.0823 
      18 C12       -1.2512    0.2297    0.8241 C.ar      1 <0>         0.0206 
      19 C13       -0.0756   -0.3156    1.3533 C.ar      1 <0>         0.0545 
      20 C14        0.2423   -0.2404    2.7146 C.ar      1 <0>        -0.1051 
      21 O5         0.6372   -0.9879    0.3629 O.3       1 <0>        -0.2879 
      22 C15        0.0193   -0.3659   -0.7667 C.3       1 <0>         0.2651 
      23 O6        -1.3351    0.0263   -0.5282 O.3       1 <0>        -0.2965 
      24 C16        0.0779   -1.3459   -1.9716 C.3       1 <0>        -0.1489 
      25 C17        0.2779   -0.6169   -3.3132 C.3       1 <0>        -0.1151 
      26 C18       -0.4046    0.7633   -3.2865 C.3       1 <0>        -0.1246 
      27 C19        0.2613    1.6877   -2.2503 C.3       1 <0>        -0.1168 
      28 C20        0.8573    0.8884   -1.0767 C.3       1 <0>        -0.1129 
      29 H1        -2.7998    2.2666   11.0639 H         1 <0>         0.0628 
      30 H2        -1.8237    2.0110   12.5266 H         1 <0>         0.0629 
      31 H3        -2.2594    3.6595   12.0260 H         1 <0>         0.0642 
      32 H4        -0.4573    1.7568   10.4739 H         1 <0>         0.0966 
      33 H5         0.0938    3.1353   11.4509 H         1 <0>         0.0967 
      34 H6        -0.1160    4.5122    8.0102 H         1 <0>         0.4129 
      35 H7         2.0873    3.7514    8.3695 H         1 <0>         0.1177 
      36 H8         1.6296    3.2959   10.0250 H         1 <0>         0.1174 
      37 H9         0.1148   -0.3645    7.4646 H         1 <0>         0.1170 
      38 H10        3.0488   -0.1045    6.6896 H         1 <0>         0.0784 
      39 H11        2.4317   -0.5064    8.3068 H         1 <0>         0.0805 
      40 H12        2.1822   -1.6330    6.9554 H         1 <0>         0.0845 
      41 H13       -1.0832    1.0454    5.4957 H         1 <0>         0.4164 
      42 H14       -2.5618    1.4838    3.6582 H         1 <0>         0.1427 
      43 H15       -3.0870    1.3213    1.2301 H         1 <0>         0.1415 
      44 H16        1.1560   -0.6672    3.1010 H         1 <0>         0.1512 
      45 H17        0.8854   -2.0585   -1.8176 H         1 <0>         0.0736 
      46 H18       -0.8543   -1.9065   -1.9927 H         1 <0>         0.0900 
      47 H19       -0.1493   -1.2123   -4.1174 H         1 <0>         0.0715 
      48 H20        1.3402   -0.4957   -3.5143 H         1 <0>         0.0728 
      49 H21       -0.3344    1.2209   -4.2711 H         1 <0>         0.0706 
      50 H22       -1.4596    0.6477   -3.0468 H         1 <0>         0.0661 
      51 H23       -0.4796    2.3849   -1.8646 H         1 <0>         0.0735 
      52 H24        1.0465    2.2674   -2.7313 H         1 <0>         0.0762 
      53 H25        1.8711    0.5814   -1.3245 H         1 <0>         0.0928 
      54 H26        0.9082    1.5230   -0.1943 H         1 <0>         0.0829 
@<TRIPOS>BOND
       1        1        2 1        
       2        1       29 1        
       3        1       30 1        
       4        1       31 1        
       5        2        3 1        
       6        2       32 1        
       7        2       33 1        
       8        3        4 2        
       9        3        5 am       
      10        5        6 1        
      11        5       34 1        
      12        6        7 1        
      13        6       35 1        
      14        6       36 1        
      15        7        8 2        
      16        7        9 1        
      17        9       10 1        
      18       10       11 1        
      19       10       12 1        
      20       10       37 1        
      21       11       38 1        
      22       11       39 1        
      23       11       40 1        
      24       12       13 2        
      25       12       14 am       
      26       14       15 1        
      27       14       41 1        
      28       15       20 ar       
      29       15       16 ar       
      30       16       17 ar       
      31       16       42 1        
      32       17       18 ar       
      33       17       43 1        
      34       18       23 1        
      35       18       19 ar       
      36       19       20 ar       
      37       19       21 1        
      38       20       44 1        
      39       21       22 1        
      40       22       28 1        
      41       22       23 1        
      42       22       24 1        
      43       24       25 1        
      44       24       45 1        
      45       24       46 1        
      46       25       26 1        
      47       25       47 1        
      48       25       48 1        
      49       26       27 1        
      50       26       49 1        
      51       26       50 1        
      52       27       28 1        
      53       27       51 1        
      54       27       52 1        
      55       28       53 1        
      56       28       54 1        

