#        1GCZ_R01_S0001_C0000_L00003_S0001_C0018_G0010_E0001.mol2
#        Tue Jun  6 14:04:02 2017
#        Descriptor:     33    10    15    13     4    15
#        Energy - RMSD - RMSD MassCentre:     -56.1213    999.9999    999.9999
#        Receptor:       1  Surface Point:     1  Conformer:     0
#        Ligand:         3  Surface Point:     1  Conformer:    18
#        BUDE Formal Charge: 0
#        ATOM Count: 58
#        Heavy ATOM Count: 30
@<TRIPOS>MOLECULE
ZINC61580633_1GCZ_R01_S0001_C0000_L00003_S0001_C0018_G0010_E0001
 58 59 0 0 0
SMALL
USER_CHARGES
@<TRIPOS>ATOM
       1 C1         8.5195   -7.4598   10.1847 C.3       1 <0>        -0.1532 
       2 C2         7.3550   -8.1880    9.5197 C.3       1 <0>        -0.1224 
       3 C3         6.1685   -8.2343   10.4815 C.3       1 <0>        -0.1198 
       4 C4         5.0024   -8.9635    9.8157 C.3       1 <0>         0.0610 
       5 O1         4.5790   -8.2309    8.6628 O.3       1 <0>        -0.3878 
       6 C5         3.4860   -8.8680    7.9962 C.3       1 <0>         0.0487 
       7 C6         3.0814   -8.0398    6.7776 C.3       1 <0>         0.1244 
       8 N1         2.4091   -6.8107    7.2228 N.am      1 <0>        -0.7216 
       9 C7         1.9675   -5.9328    6.3266 C.2       1 <0>         0.5161 
      10 O2         1.4050   -4.9040    6.6978 O.2       1 <0>        -0.5151 
      11 C8         2.1573   -6.1992    4.8524 C.3       1 <0>         0.0490 
      12 O3         3.5446   -6.0894    4.5237 O.3       1 <0>        -0.3194 
      13 C9         4.1420   -4.8904    4.6908 C.2       1 <0>         0.5417 
      14 O4         3.5003   -3.9415    5.1108 O.2       1 <0>        -0.5337 
      15 C10        5.5761   -4.7268    4.3645 C.2       1 <0>        -0.2559 
      16 C11        6.4487   -5.8120    3.8630 C.2       1 <0>        -0.0791 
      17 C12        7.7033   -5.4032    3.6603 C.2       1 <0>        -0.2585 
      18 S1         7.9346   -3.6918    4.0473 S.3       1 <0>         0.3028 
      19 C13        6.2300   -3.5660    4.5068 C.2       1 <0>         0.0893 
      20 N2         5.6136   -2.4334    4.9696 N.am      1 <0>        -0.6099 
      21 C14        6.3037   -1.3033    5.0944 C.2       1 <0>         0.5551 
      22 O5         7.4961   -1.2749    4.7941 O.2       1 <0>        -0.4939 
      23 C15        5.6362   -0.0807    5.5945 C.ar      1 <0>        -0.1466 
      24 C16        6.4011    1.0860    5.7131 C.ar      1 <0>        -0.0772 
      25 C17        5.8452    2.2537    6.2490 C.ar      1 <0>        -0.1241 
      26 C18        4.5156    2.2735    6.6860 C.ar      1 <0>        -0.0446 
      27 C19        3.7332    1.1245    6.5195 C.ar      1 <0>        -0.1261 
      28 C20        4.2847   -0.0325    5.9563 C.ar      1 <0>        -0.0460 
      29 C21        3.9530    3.5242    7.3181 C.3       1 <0>        -0.0928 
      30 C22        4.1769    3.4756    8.8267 C.3       1 <0>        -0.1485 
      31 H1         8.8155   -7.9958   11.0840 H         1 <0>         0.0567 
      32 H2         8.2118   -6.4501   10.4485 H         1 <0>         0.0554 
      33 H3         9.3597   -7.4150    9.4951 H         1 <0>         0.0557 
      34 H4         7.0660   -7.6597    8.6135 H         1 <0>         0.0632 
      35 H5         7.6569   -9.2026    9.2682 H         1 <0>         0.0635 
      36 H6         6.4559   -8.7630   11.3878 H         1 <0>         0.0711 
      37 H7         5.8650   -7.2201   10.7330 H         1 <0>         0.0704 
      38 H8         5.3209   -9.9594    9.5148 H         1 <0>         0.0498 
      39 H9         4.1752   -9.0431   10.5179 H         1 <0>         0.0505 
      40 H10        2.6411   -8.9467    8.6771 H         1 <0>         0.0584 
      41 H11        3.7869   -9.8628    7.6741 H         1 <0>         0.0702 
      42 H12        2.4027   -8.6182    6.1544 H         1 <0>         0.0872 
      43 H13        3.9687   -7.7797    6.2043 H         1 <0>         0.0805 
      44 H14        2.2823   -6.6325    8.2088 H         1 <0>         0.4058 
      45 H15        1.8077   -7.2021    4.6165 H         1 <0>         0.1008 
      46 H16        1.5899   -5.4717    4.2759 H         1 <0>         0.0999 
      47 H17        6.0866   -6.8123    3.6772 H         1 <0>         0.1557 
      48 H18        8.4785   -6.0560    3.2871 H         1 <0>         0.1929 
      49 H19        4.6345   -2.4566    5.2162 H         1 <0>         0.4317 
      50 H20        7.4325    1.0863    5.3928 H         1 <0>         0.1287 
      51 H21        6.4431    3.1494    6.3298 H         1 <0>         0.1326 
      52 H22        2.6984    1.1447    6.8278 H         1 <0>         0.1342 
      53 H23        3.6184   -0.8676    5.7984 H         1 <0>         0.1410 
      54 H24        2.8867    3.5863    7.1109 H         1 <0>         0.0777 
      55 H25        4.4548    4.3963    6.9041 H         1 <0>         0.0771 
      56 H26        5.2440    3.4261    9.0328 H         1 <0>         0.0623 
      57 H27        3.6865    2.5954    9.2374 H         1 <0>         0.0572 
      58 H28        3.7597    4.3705    9.2836 H         1 <0>         0.0578 
@<TRIPOS>BOND
       1        1        2 1        
       2        1       31 1        
       3        1       32 1        
       4        1       33 1        
       5        2        3 1        
       6        2       34 1        
       7        2       35 1        
       8        3        4 1        
       9        3       36 1        
      10        3       37 1        
      11        4        5 1        
      12        4       38 1        
      13        4       39 1        
      14        5        6 1        
      15        6        7 1        
      16        6       40 1        
      17        6       41 1        
      18        7        8 1        
      19        7       42 1        
      20        7       43 1        
      21        8        9 am       
      22        8       44 1        
      23        9       10 2        
      24        9       11 1        
      25       11       12 1        
      26       11       45 1        
      27       11       46 1        
      28       12       13 1        
      29       13       14 2        
      30       13       15 1        
      31       15       19 2        
      32       15       16 1        
      33       16       17 2        
      34       16       47 1        
      35       17       18 1        
      36       17       48 1        
      37       18       19 1        
      38       19       20 1        
      39       20       21 am       
      40       20       49 1        
      41       21       22 2        
      42       21       23 1        
      43       23       28 ar       
      44       23       24 ar       
      45       24       25 ar       
      46       24       50 1        
      47       25       26 ar       
      48       25       51 1        
      49       26       27 ar       
      50       26       29 1        
      51       27       28 ar       
      52       27       52 1        
      53       28       53 1        
      54       29       30 1        
      55       29       54 1        
      56       29       55 1        
      57       30       56 1        
      58       30       57 1        
      59       30       58 1        

