#        1GCZ_R01_S0001_C0000_L00012_S0001_C0016_G0010_E0001.mol2
#        Tue Jun  6 09:58:49 2017
#        Descriptor:     15    33    27     8    10    13
#        Energy - RMSD - RMSD MassCentre:     -74.6038    999.9999    999.9999
#        Receptor:       1  Surface Point:     1  Conformer:     0
#        Ligand:        12  Surface Point:     1  Conformer:    16
#        BUDE Formal Charge: 0
#        ATOM Count: 54
#        Heavy ATOM Count: 28
@<TRIPOS>MOLECULE
ZINC61282011_1GCZ_R01_S0001_C0000_L00012_S0001_C0016_G0010_E0001
 54 56 0 0 0
SMALL
USER_CHARGES
@<TRIPOS>ATOM
       1 C1        -0.9538    4.2312   12.7975 C.3       1 <0>        -0.1394 
       2 C2        -0.5016    4.8959   11.5005 C.3       1 <0>        -0.1416 
       3 C3        -1.6277    4.8542   10.4954 C.2       1 <0>         0.5168 
       4 O1        -2.7017    4.3351   10.7952 O.2       1 <0>        -0.5327 
       5 N1        -1.4582    5.3792    9.2852 N.am      1 <0>        -0.7288 
       6 C4        -0.1748    5.9997    8.9271 C.3       1 <0>         0.1281 
       7 C5         0.8426    4.9210    8.6421 C.2       1 <0>         0.4647 
       8 O2         1.7966    4.7960    9.3508 O.2       1 <0>        -0.5000 
       9 O3         0.6745    4.0972    7.5859 O.3       1 <0>        -0.3169 
      10 C6         1.6641    3.0908    7.3560 C.3       1 <0>         0.0729 
      11 C7         3.0205    3.7523    7.1293 C.3       1 <0>        -0.1704 
      12 C8         1.2875    2.2856    6.1353 C.2       1 <0>         0.5166 
      13 O4         2.0563    2.2238    5.1772 O.2       1 <0>        -0.4890 
      14 N2         0.1239    1.6427    6.0963 N.am      1 <0>        -0.6633 
      15 C9        -0.2303    0.8876    4.9533 C.ar      1 <0>         0.1513 
      16 C10       -1.4387    0.1809    4.9542 C.ar      1 <0>        -0.1318 
      17 C11       -1.8398   -0.5823    3.8513 C.ar      1 <0>        -0.0823 
      18 C12       -0.9705   -0.5989    2.7541 C.ar      1 <0>         0.0206 
      19 C13        0.2330    0.1160    2.7610 C.ar      1 <0>         0.0545 
      20 C14        0.6470    0.8815    3.8575 C.ar      1 <0>        -0.1051 
      21 O5         0.9493   -0.1268    1.5909 O.3       1 <0>        -0.2879 
      22 C15       -0.1403   -0.6117    0.8021 C.3       1 <0>         0.2651 
      23 O6        -1.1504   -1.2686    1.5723 O.3       1 <0>        -0.2965 
      24 C16        0.4676   -1.5760   -0.2622 C.3       1 <0>        -0.1489 
      25 C17       -0.3482   -1.5376   -1.5678 C.3       1 <0>        -0.1151 
      26 C18       -0.2185   -0.1615   -2.2468 C.3       1 <0>        -0.1246 
      27 C19       -0.0322    0.9540   -1.2014 C.3       1 <0>        -0.1168 
      28 C20       -0.7557    0.6227    0.1170 C.3       1 <0>        -0.1129 
      29 H1        -1.2123    3.1927   12.6011 H         1 <0>         0.0628 
      30 H2        -0.1468    4.2730   13.5261 H         1 <0>         0.0629 
      31 H3        -1.8238    4.7546   13.1884 H         1 <0>         0.0642 
      32 H4         0.3599    4.3646   11.1011 H         1 <0>         0.0966 
      33 H5        -0.2308    5.9310   11.6979 H         1 <0>         0.0967 
      34 H6        -2.2108    5.3519    8.6122 H         1 <0>         0.4129 
      35 H7        -0.3047    6.6179    8.0413 H         1 <0>         0.1177 
      36 H8         0.1734    6.6168    9.7527 H         1 <0>         0.1174 
      37 H9         1.7208    2.4328    8.2204 H         1 <0>         0.1170 
      38 H10        2.9591    4.4197    6.2722 H         1 <0>         0.0784 
      39 H11        3.2978    4.3217    8.0139 H         1 <0>         0.0805 
      40 H12        3.7697    2.9864    6.9405 H         1 <0>         0.0845 
      41 H13       -0.5072    1.6934    6.8830 H         1 <0>         0.4164 
      42 H14       -2.0793    0.2241    5.8226 H         1 <0>         0.1427 
      43 H15       -2.7720   -1.1279    3.8502 H         1 <0>         0.1415 
      44 H16        1.5793    1.4263    3.8404 H         1 <0>         0.1512 
      45 H17        1.5009   -1.3046   -0.4674 H         1 <0>         0.0736 
      46 H18        0.4681   -2.5862    0.1417 H         1 <0>         0.0900 
      47 H19       -1.3959   -1.7309   -1.3474 H         1 <0>         0.0715 
      48 H20        0.0002   -2.3141   -2.2454 H         1 <0>         0.0728 
      49 H21        0.6375   -0.1686   -2.9184 H         1 <0>         0.0706 
      50 H22       -1.1070    0.0409   -2.8412 H         1 <0>         0.0661 
      51 H23       -0.4282    1.8862   -1.5988 H         1 <0>         0.0735 
      52 H24        1.0288    1.0976   -1.0077 H         1 <0>         0.0762 
      53 H25       -0.6847    1.4720    0.7932 H         1 <0>         0.0928 
      54 H26       -1.8101    0.4438   -0.0828 H         1 <0>         0.0829 
@<TRIPOS>BOND
       1        1        2 1        
       2        1       29 1        
       3        1       30 1        
       4        1       31 1        
       5        2        3 1        
       6        2       32 1        
       7        2       33 1        
       8        3        4 2        
       9        3        5 am       
      10        5        6 1        
      11        5       34 1        
      12        6        7 1        
      13        6       35 1        
      14        6       36 1        
      15        7        8 2        
      16        7        9 1        
      17        9       10 1        
      18       10       11 1        
      19       10       12 1        
      20       10       37 1        
      21       11       38 1        
      22       11       39 1        
      23       11       40 1        
      24       12       13 2        
      25       12       14 am       
      26       14       15 1        
      27       14       41 1        
      28       15       20 ar       
      29       15       16 ar       
      30       16       17 ar       
      31       16       42 1        
      32       17       18 ar       
      33       17       43 1        
      34       18       23 1        
      35       18       19 ar       
      36       19       20 ar       
      37       19       21 1        
      38       20       44 1        
      39       21       22 1        
      40       22       28 1        
      41       22       23 1        
      42       22       24 1        
      43       24       25 1        
      44       24       45 1        
      45       24       46 1        
      46       25       26 1        
      47       25       47 1        
      48       25       48 1        
      49       26       27 1        
      50       26       49 1        
      51       26       50 1        
      52       27       28 1        
      53       27       51 1        
      54       27       52 1        
      55       28       53 1        
      56       28       54 1        

