#        1GCZ_R01_S0001_C0000_L00012_S0001_C0016_G0010_E0001.mol2
#        Tue Jun  6 14:13:31 2017
#        Descriptor:     16    32    22     9     9    12
#        Energy - RMSD - RMSD MassCentre:     -78.7561    999.9999    999.9999
#        Receptor:       1  Surface Point:     1  Conformer:     0
#        Ligand:        12  Surface Point:     1  Conformer:    16
#        BUDE Formal Charge: 0
#        ATOM Count: 54
#        Heavy ATOM Count: 28
@<TRIPOS>MOLECULE
ZINC61282011_1GCZ_R01_S0001_C0000_L00012_S0001_C0016_G0010_E0001
 54 56 0 0 0
SMALL
USER_CHARGES
@<TRIPOS>ATOM
       1 C1         0.5367    3.1153   11.8740 C.3       1 <0>        -0.1394 
       2 C2         1.6099    3.1045   10.7892 C.3       1 <0>        -0.1416 
       3 C3         1.1840    4.0023    9.6522 C.2       1 <0>         0.5168 
       4 O1         0.1104    4.5998    9.7084 O.2       1 <0>        -0.5327 
       5 N1         1.9704    4.1472    8.5894 N.am      1 <0>        -0.7288 
       6 C4         3.2534    3.4331    8.5224 C.3       1 <0>         0.1281 
       7 C5         3.0041    1.9823    8.1864 C.2       1 <0>         0.4647 
       8 O2         3.2675    1.1301    8.9816 O.2       1 <0>        -0.5000 
       9 O3         2.4834    1.6476    6.9867 O.3       1 <0>        -0.3169 
      10 C6         2.2650    0.2610    6.7136 C.3       1 <0>         0.0729 
      11 C7         3.5917   -0.4890    6.7917 C.3       1 <0>        -0.1704 
      12 C8         1.6818    0.1074    5.3292 C.2       1 <0>         0.5166 
      13 O4         2.2668   -0.5711    4.4864 O.2       1 <0>        -0.4890 
      14 N2         0.5350    0.7062    5.0209 N.am      1 <0>        -0.6633 
      15 C9        -0.0128    0.5631    3.7242 C.ar      1 <0>         0.1513 
      16 C10       -1.2446    1.1633    3.4375 C.ar      1 <0>        -0.1318 
      17 C11       -1.8335    1.0548    2.1721 C.ar      1 <0>        -0.0823 
      18 C12       -1.1260    0.3174    1.2153 C.ar      1 <0>         0.0206 
      19 C13        0.1079   -0.2741    1.5104 C.ar      1 <0>         0.0545 
      20 C14        0.7072   -0.1750    2.7717 C.ar      1 <0>        -0.1051 
      21 O5         0.5655   -1.0132    0.4217 O.3       1 <0>        -0.2879 
      22 C15       -0.2461   -0.3933   -0.5792 C.3       1 <0>         0.2651 
      23 O6        -1.5008    0.0781   -0.0807 O.3       1 <0>        -0.2965 
      24 C16       -0.4534   -1.4483   -1.7088 C.3       1 <0>        -0.1489 
      25 C17       -0.5776   -0.7645   -3.0830 C.3       1 <0>        -0.1151 
      26 C18        0.7548   -0.1026   -3.4807 C.3       1 <0>        -0.1246 
      27 C19        1.5230    0.3814   -2.2367 C.3       1 <0>        -0.1168 
      28 C20        0.5654    0.8044   -1.1073 C.3       1 <0>        -0.1129 
      29 H1        -0.3985    2.7421   11.4618 H         1 <0>         0.0628 
      30 H2         0.8496    2.4787   12.6990 H         1 <0>         0.0629 
      31 H3         0.3952    4.1324   12.2332 H         1 <0>         0.0642 
      32 H4         1.7423    2.0898   10.4192 H         1 <0>         0.0966 
      33 H5         2.5489    3.4657   11.2035 H         1 <0>         0.0967 
      34 H6         1.6865    4.7474    7.8284 H         1 <0>         0.4129 
      35 H7         3.8786    3.8808    7.7527 H         1 <0>         0.1177 
      36 H8         3.7574    3.5006    9.4842 H         1 <0>         0.1174 
      37 H9         1.5724   -0.1488    7.4456 H         1 <0>         0.1170 
      38 H10        4.2876   -0.0701    6.0680 H         1 <0>         0.0784 
      39 H11        4.0053   -0.3894    7.7931 H         1 <0>         0.0805 
      40 H12        3.4264   -1.5411    6.5699 H         1 <0>         0.0845 
      41 H13        0.0547    1.2633    5.7129 H         1 <0>         0.4164 
      42 H14       -1.7543    1.7247    4.2065 H         1 <0>         0.1427 
      43 H15       -2.7836    1.5175    1.9492 H         1 <0>         0.1415 
      44 H16        1.6609   -0.6384    2.9769 H         1 <0>         0.1512 
      45 H17        0.3770   -2.1510   -1.7227 H         1 <0>         0.0736 
      46 H18       -1.3579   -2.0143   -1.4963 H         1 <0>         0.0900 
      47 H19       -1.3564   -0.0059   -3.0423 H         1 <0>         0.0715 
      48 H20       -0.8619   -1.4959   -3.8365 H         1 <0>         0.0728 
      49 H21        1.3676   -0.8198   -4.0226 H         1 <0>         0.0706 
      50 H22        0.5642    0.7401   -4.1419 H         1 <0>         0.0661 
      51 H23        2.1467    1.2301   -2.5094 H         1 <0>         0.0735 
      52 H24        2.1765   -0.4125   -1.8809 H         1 <0>         0.0762 
      53 H25        1.1382    1.2303   -0.2863 H         1 <0>         0.0928 
      54 H26       -0.1115    1.5729   -1.4744 H         1 <0>         0.0829 
@<TRIPOS>BOND
       1        1        2 1        
       2        1       29 1        
       3        1       30 1        
       4        1       31 1        
       5        2        3 1        
       6        2       32 1        
       7        2       33 1        
       8        3        4 2        
       9        3        5 am       
      10        5        6 1        
      11        5       34 1        
      12        6        7 1        
      13        6       35 1        
      14        6       36 1        
      15        7        8 2        
      16        7        9 1        
      17        9       10 1        
      18       10       11 1        
      19       10       12 1        
      20       10       37 1        
      21       11       38 1        
      22       11       39 1        
      23       11       40 1        
      24       12       13 2        
      25       12       14 am       
      26       14       15 1        
      27       14       41 1        
      28       15       20 ar       
      29       15       16 ar       
      30       16       17 ar       
      31       16       42 1        
      32       17       18 ar       
      33       17       43 1        
      34       18       23 1        
      35       18       19 ar       
      36       19       20 ar       
      37       19       21 1        
      38       20       44 1        
      39       21       22 1        
      40       22       28 1        
      41       22       23 1        
      42       22       24 1        
      43       24       25 1        
      44       24       45 1        
      45       24       46 1        
      46       25       26 1        
      47       25       47 1        
      48       25       48 1        
      49       26       27 1        
      50       26       49 1        
      51       26       50 1        
      52       27       28 1        
      53       27       51 1        
      54       27       52 1        
      55       28       53 1        
      56       28       54 1        

