#        1GCZ_R01_S0001_C0000_L00012_S0001_C0017_G0010_E0001.mol2
#        Tue Jun  6 09:58:50 2017
#        Descriptor:     17    31    23     8     9    12
#        Energy - RMSD - RMSD MassCentre:     -81.5840    999.9999    999.9999
#        Receptor:       1  Surface Point:     1  Conformer:     0
#        Ligand:        12  Surface Point:     1  Conformer:    17
#        BUDE Formal Charge: 0
#        ATOM Count: 54
#        Heavy ATOM Count: 28
@<TRIPOS>MOLECULE
ZINC61282011_1GCZ_R01_S0001_C0000_L00012_S0001_C0017_G0010_E0001
 54 56 0 0 0
SMALL
USER_CHARGES
@<TRIPOS>ATOM
       1 C1        -1.9661    2.6945   11.6830 C.3       1 <0>        -0.1394 
       2 C2        -0.6920    2.7774   10.8474 C.3       1 <0>        -0.1416 
       3 C3        -0.9199    3.7001    9.6740 C.2       1 <0>         0.5168 
       4 O1        -2.0122    4.2446    9.5219 O.2       1 <0>        -0.5327 
       5 N1         0.0613    3.9242    8.8044 N.am      1 <0>        -0.7288 
       6 C4         1.3667    3.2735    8.9863 C.3       1 <0>         0.1281 
       7 C5         1.2708    1.8276    8.5619 C.2       1 <0>         0.4647 
       8 O2         1.4085    0.9568    9.3686 O.2       1 <0>        -0.5000 
       9 O3         1.0295    1.5183    7.2702 O.3       1 <0>        -0.3169 
      10 C6         0.9473    0.1353    6.9157 C.3       1 <0>         0.0729 
      11 C7         2.2671   -0.5551    7.2475 C.3       1 <0>        -0.1704 
      12 C8         0.6736    0.0115    5.4359 C.2       1 <0>         0.5166 
      13 O4         1.4564   -0.6045    4.7143 O.2       1 <0>        -0.4890 
      14 N2        -0.4146    0.5687    4.9123 N.am      1 <0>        -0.6633 
      15 C9        -0.6725    0.4534    3.5259 C.ar      1 <0>         0.1513 
      16 C10       -1.8482    1.0073    3.0056 C.ar      1 <0>        -0.1318 
      17 C11       -2.1547    0.9233    1.6422 C.ar      1 <0>        -0.0823 
      18 C12       -1.2253    0.2588    0.8332 C.ar      1 <0>         0.0206 
      19 C13       -0.0497   -0.2866    1.3623 C.ar      1 <0>         0.0545 
      20 C14        0.2682   -0.2113    2.7236 C.ar      1 <0>        -0.1051 
      21 O5         0.6631   -0.9589    0.3719 O.3       1 <0>        -0.2879 
      22 C15        0.0452   -0.3369   -0.7577 C.3       1 <0>         0.2651 
      23 O6        -1.3092    0.0554   -0.5192 O.3       1 <0>        -0.2965 
      24 C16        0.0364   -1.2863   -1.9417 C.3       1 <0>        -0.1489 
      25 C17       -0.6485   -0.6922   -3.1863 C.3       1 <0>        -0.1151 
      26 C18       -0.4332    0.8315   -3.2473 C.3       1 <0>        -0.1246 
      27 C19        0.8949    1.2280   -2.5759 C.3       1 <0>        -0.1168 
      28 C20        0.8832    0.9174   -1.0677 C.3       1 <0>        -0.1129 
      29 H1        -2.7739    2.2956   11.0729 H         1 <0>         0.0628 
      30 H2        -1.7978    2.0400   12.5357 H         1 <0>         0.0629 
      31 H3        -2.2336    3.6886   12.0350 H         1 <0>         0.0642 
      32 H4        -0.4314    1.7858   10.4829 H         1 <0>         0.0966 
      33 H5         0.1197    3.1644   11.4599 H         1 <0>         0.0967 
      34 H6        -0.0901    4.5412    8.0192 H         1 <0>         0.4129 
      35 H7         2.1132    3.7805    8.3786 H         1 <0>         0.1177 
      36 H8         1.6554    3.3249   10.0340 H         1 <0>         0.1174 
      37 H9         0.1407   -0.3354    7.4736 H         1 <0>         0.1170 
      38 H10        3.0746   -0.0755    6.6987 H         1 <0>         0.0784 
      39 H11        2.4576   -0.4774    8.3159 H         1 <0>         0.0805 
      40 H12        2.2081   -1.6039    6.9644 H         1 <0>         0.0845 
      41 H13       -1.0574    1.0745    5.5048 H         1 <0>         0.4164 
      42 H14       -2.5360    1.5128    3.6673 H         1 <0>         0.1427 
      43 H15       -3.0611    1.3503    1.2392 H         1 <0>         0.1415 
      44 H16        1.1819   -0.6382    3.1100 H         1 <0>         0.1512 
      45 H17        1.0610   -1.5611   -2.1832 H         1 <0>         0.0736 
      46 H18       -0.4818   -2.1918   -1.6334 H         1 <0>         0.0900 
      47 H19       -1.7153   -0.9019   -3.1490 H         1 <0>         0.0715 
      48 H20       -0.2478   -1.1544   -4.0861 H         1 <0>         0.0728 
      49 H21       -0.4185    1.1537   -4.2864 H         1 <0>         0.0706 
      50 H22       -1.2579    1.3399   -2.7522 H         1 <0>         0.0661 
      51 H23        1.0629    2.2937   -2.7173 H         1 <0>         0.0735 
      52 H24        1.7160    0.6949   -3.0506 H         1 <0>         0.0762 
      53 H25        1.9020    0.7535   -0.7230 H         1 <0>         0.0928 
      54 H26        0.4815    1.7704   -0.5247 H         1 <0>         0.0829 
@<TRIPOS>BOND
       1        1        2 1        
       2        1       29 1        
       3        1       30 1        
       4        1       31 1        
       5        2        3 1        
       6        2       32 1        
       7        2       33 1        
       8        3        4 2        
       9        3        5 am       
      10        5        6 1        
      11        5       34 1        
      12        6        7 1        
      13        6       35 1        
      14        6       36 1        
      15        7        8 2        
      16        7        9 1        
      17        9       10 1        
      18       10       11 1        
      19       10       12 1        
      20       10       37 1        
      21       11       38 1        
      22       11       39 1        
      23       11       40 1        
      24       12       13 2        
      25       12       14 am       
      26       14       15 1        
      27       14       41 1        
      28       15       20 ar       
      29       15       16 ar       
      30       16       17 ar       
      31       16       42 1        
      32       17       18 ar       
      33       17       43 1        
      34       18       23 1        
      35       18       19 ar       
      36       19       20 ar       
      37       19       21 1        
      38       20       44 1        
      39       21       22 1        
      40       22       28 1        
      41       22       23 1        
      42       22       24 1        
      43       24       25 1        
      44       24       45 1        
      45       24       46 1        
      46       25       26 1        
      47       25       47 1        
      48       25       48 1        
      49       26       27 1        
      50       26       49 1        
      51       26       50 1        
      52       27       28 1        
      53       27       51 1        
      54       27       52 1        
      55       28       53 1        
      56       28       54 1        

