#        1GCZ_R01_S0001_C0000_L00012_S0001_C0017_G0010_E0001.mol2
#        Tue Jun  6 14:13:32 2017
#        Descriptor:     19    30    20     8     9    11
#        Energy - RMSD - RMSD MassCentre:     -77.0492    999.9999    999.9999
#        Receptor:       1  Surface Point:     1  Conformer:     0
#        Ligand:        12  Surface Point:     1  Conformer:    17
#        BUDE Formal Charge: 0
#        ATOM Count: 54
#        Heavy ATOM Count: 28
@<TRIPOS>MOLECULE
ZINC61282011_1GCZ_R01_S0001_C0000_L00012_S0001_C0017_G0010_E0001
 54 56 0 0 0
SMALL
USER_CHARGES
@<TRIPOS>ATOM
       1 C1        -1.6673    4.7764    9.9802 C.3       1 <0>        -0.1394 
       2 C2        -0.5921    3.8034    9.5050 C.3       1 <0>        -0.1416 
       3 C3         0.1652    4.4160    8.3511 C.2       1 <0>         0.5168 
       4 O1        -0.1330    5.5381    7.9453 O.2       1 <0>        -0.5327 
       5 N1         1.1555    3.7417    7.7734 N.am      1 <0>        -0.7288 
       6 C4         1.5118    2.4008    8.2586 C.3       1 <0>         0.1281 
       7 C5         0.4935    1.4009    7.7652 C.2       1 <0>         0.4647 
       8 O2        -0.2101    0.8296    8.5439 O.2       1 <0>        -0.5000 
       9 O3         0.3781    1.1520    6.4434 O.3       1 <0>        -0.3169 
      10 C6        -0.6001    0.1972    6.0235 C.3       1 <0>         0.0729 
      11 C7        -0.2939   -1.1576    6.6555 C.3       1 <0>        -0.1704 
      12 C8        -0.5643    0.0695    4.5193 C.2       1 <0>         0.5166 
      13 O4        -0.3416   -1.0226    3.9991 O.2       1 <0>        -0.4890 
      14 N2        -0.7738    1.1386    3.7564 N.am      1 <0>        -0.6633 
      15 C9        -0.7408    1.0205    2.3468 C.ar      1 <0>         0.1513 
      16 C10       -1.0112    2.1495    1.5644 C.ar      1 <0>        -0.1318 
      17 C11       -0.9925    2.0909    0.1658 C.ar      1 <0>        -0.0823 
      18 C12       -0.6898    0.8482   -0.4031 C.ar      1 <0>         0.0206 
      19 C13       -0.4150   -0.2734    0.3883 C.ar      1 <0>         0.0545 
      20 C14       -0.4321   -0.2293    1.7874 C.ar      1 <0>        -0.1051 
      21 O5        -0.2237   -1.3978   -0.4119 O.3       1 <0>        -0.2879 
      22 C15        0.0499   -0.7114   -1.6361 C.3       1 <0>         0.2651 
      23 O6        -0.6122    0.5520   -1.7386 O.3       1 <0>        -0.2965 
      24 C16       -0.3956   -1.5498   -2.8201 C.3       1 <0>        -0.1489 
      25 C17       -0.1627   -0.8538   -4.1738 C.3       1 <0>        -0.1151 
      26 C18        1.0910    0.0387   -4.1151 C.3       1 <0>        -0.1246 
      27 C19        2.1162   -0.5163   -3.1088 C.3       1 <0>        -0.1168 
      28 C20        1.5726   -0.4835   -1.6684 C.3       1 <0>        -0.1129 
      29 H1        -2.3629    4.9728    9.1670 H         1 <0>         0.0628 
      30 H2        -2.2042    4.3405   10.8201 H         1 <0>         0.0629 
      31 H3        -1.2001    5.7083   10.2918 H         1 <0>         0.0642 
      32 H4        -1.0594    2.8762    9.1798 H         1 <0>         0.0966 
      33 H5         0.0969    3.5964   10.3211 H         1 <0>         0.0967 
      34 H6         1.6627    4.1505    7.0015 H         1 <0>         0.4129 
      35 H7         2.4967    2.1290    7.8847 H         1 <0>         0.1177 
      36 H8         1.5232    2.3991    9.3464 H         1 <0>         0.1174 
      37 H9        -1.5884    0.5284    6.3353 H         1 <0>         0.1170 
      38 H10        0.6995   -1.4820    6.3531 H         1 <0>         0.0784 
      39 H11       -0.3328   -1.0686    7.7391 H         1 <0>         0.0805 
      40 H12       -1.0306   -1.8864    6.3242 H         1 <0>         0.0845 
      41 H13       -0.9567    2.0353    4.1835 H         1 <0>         0.4164 
      42 H14       -1.2384    3.0887    2.0468 H         1 <0>         0.1427 
      43 H15       -1.2006    2.9611   -0.4392 H         1 <0>         0.1415 
      44 H16       -0.2157   -1.1070    2.3783 H         1 <0>         0.1512 
      45 H17        0.1337   -2.5001   -2.8007 H         1 <0>         0.0736 
      46 H18       -1.4550   -1.7621   -2.6929 H         1 <0>         0.0900 
      47 H19       -1.0272   -0.2413   -4.4210 H         1 <0>         0.0715 
      48 H20       -0.0449   -1.5986   -4.9582 H         1 <0>         0.0728 
      49 H21        1.5479    0.0863   -5.1014 H         1 <0>         0.0706 
      50 H22        0.8098    1.0500   -3.8287 H         1 <0>         0.0661 
      51 H23        3.0250    0.0800   -3.1587 H         1 <0>         0.0735 
      52 H24        2.3729   -1.5389   -3.3774 H         1 <0>         0.0762 
      53 H25        2.0568   -1.2601   -1.0801 H         1 <0>         0.0928 
      54 H26        1.8097    0.4756   -1.2128 H         1 <0>         0.0829 
@<TRIPOS>BOND
       1        1        2 1        
       2        1       29 1        
       3        1       30 1        
       4        1       31 1        
       5        2        3 1        
       6        2       32 1        
       7        2       33 1        
       8        3        4 2        
       9        3        5 am       
      10        5        6 1        
      11        5       34 1        
      12        6        7 1        
      13        6       35 1        
      14        6       36 1        
      15        7        8 2        
      16        7        9 1        
      17        9       10 1        
      18       10       11 1        
      19       10       12 1        
      20       10       37 1        
      21       11       38 1        
      22       11       39 1        
      23       11       40 1        
      24       12       13 2        
      25       12       14 am       
      26       14       15 1        
      27       14       41 1        
      28       15       20 ar       
      29       15       16 ar       
      30       16       17 ar       
      31       16       42 1        
      32       17       18 ar       
      33       17       43 1        
      34       18       23 1        
      35       18       19 ar       
      36       19       20 ar       
      37       19       21 1        
      38       20       44 1        
      39       21       22 1        
      40       22       28 1        
      41       22       23 1        
      42       22       24 1        
      43       24       25 1        
      44       24       45 1        
      45       24       46 1        
      46       25       26 1        
      47       25       47 1        
      48       25       48 1        
      49       26       27 1        
      50       26       49 1        
      51       26       50 1        
      52       27       28 1        
      53       27       51 1        
      54       27       52 1        
      55       28       53 1        
      56       28       54 1        

