#        1GCZ_R01_S0001_C0000_L00012_S0001_C0018_G0010_E0001.mol2
#        Tue Jun  6 09:58:51 2017
#        Descriptor:     14    32    25     8    10    13
#        Energy - RMSD - RMSD MassCentre:     -76.6604    999.9999    999.9999
#        Receptor:       1  Surface Point:     1  Conformer:     0
#        Ligand:        12  Surface Point:     1  Conformer:    18
#        BUDE Formal Charge: 0
#        ATOM Count: 54
#        Heavy ATOM Count: 28
@<TRIPOS>MOLECULE
ZINC61282011_1GCZ_R01_S0001_C0000_L00012_S0001_C0018_G0010_E0001
 54 56 0 0 0
SMALL
USER_CHARGES
@<TRIPOS>ATOM
       1 C1        -2.8279    3.4222    8.4043 C.3       1 <0>        -0.1394 
       2 C2        -2.3756    4.1632    9.6593 C.3       1 <0>        -0.1416 
       3 C3        -0.8915    4.4295    9.5780 C.2       1 <0>         0.5168 
       4 O1        -0.1345    3.9616   10.4270 O.2       1 <0>        -0.5327 
       5 N1        -0.4025    5.1705    8.5876 N.am      1 <0>        -0.7288 
       6 C4         1.0422    5.4297    8.5085 C.3       1 <0>         0.1281 
       7 C5         1.7454    4.2002    7.9853 C.2       1 <0>         0.4647 
       8 O2         2.2996    4.2327    6.9272 O.2       1 <0>        -0.5000 
       9 O3         1.7479    3.0634    8.7134 O.3       1 <0>        -0.3169 
      10 C6         2.4268    1.9249    8.1770 C.3       1 <0>         0.0729 
      11 C7         3.8823    2.2859    7.8943 C.3       1 <0>        -0.1704 
      12 C8         1.7562    1.4990    6.8928 C.2       1 <0>         0.5166 
      13 O4         2.4000    1.4600    5.8455 O.2       1 <0>        -0.4890 
      14 N2         0.4687    1.1659    6.8941 N.am      1 <0>        -0.6633 
      15 C9        -0.1611    0.7666    5.6916 C.ar      1 <0>         0.1513 
      16 C10       -1.5046    0.3749    5.7264 C.ar      1 <0>        -0.1318 
      17 C11       -2.1782   -0.0296    4.5678 C.ar      1 <0>        -0.0823 
      18 C12       -1.4378   -0.0203    3.3797 C.ar      1 <0>         0.0206 
      19 C13       -0.0963    0.3788    3.3546 C.ar      1 <0>         0.0545 
      20 C14        0.5898    0.7837    4.5058 C.ar      1 <0>        -0.1051 
      21 O5         0.4332    0.2236    2.0753 O.3       1 <0>        -0.2879 
      22 C15       -0.8066    0.1785    1.3643 C.3       1 <0>         0.2651 
      23 O6        -1.8812   -0.3708    2.1316 O.3       1 <0>        -0.2965 
      24 C16       -0.5853   -0.6569    0.1253 C.3       1 <0>        -0.1489 
      25 C17        0.6178   -0.1974   -0.7190 C.3       1 <0>        -0.1151 
      26 C18        0.7907    1.3302   -0.6283 C.3       1 <0>        -0.1246 
      27 C19       -0.5599    2.0239   -0.3708 C.3       1 <0>        -0.1168 
      28 C20       -1.1447    1.6361    0.9999 C.3       1 <0>        -0.1129 
      29 H1        -2.3027    2.4719    8.3358 H         1 <0>         0.0628 
      30 H2        -3.8996    3.2420    8.4568 H         1 <0>         0.0629 
      31 H3        -2.6035    4.0254    7.5270 H         1 <0>         0.0642 
      32 H4        -2.5867    3.5548   10.5362 H         1 <0>         0.0966 
      33 H5        -2.9093    5.1082    9.7355 H         1 <0>         0.0967 
      34 H6        -1.0232    5.5552    7.8899 H         1 <0>         0.4129 
      35 H7         1.2251    6.2652    7.8360 H         1 <0>         0.1177 
      36 H8         1.4228    5.6707    9.4988 H         1 <0>         0.1174 
      37 H9         2.3879    1.1076    8.8939 H         1 <0>         0.1170 
      38 H10        3.9197    3.1115    7.1869 H         1 <0>         0.0784 
      39 H11        4.3690    2.5799    8.8219 H         1 <0>         0.0805 
      40 H12        4.3940    1.4231    7.4732 H         1 <0>         0.0845 
      41 H13       -0.0599    1.1979    7.7541 H         1 <0>         0.4164 
      42 H14       -2.0373    0.3850    6.6659 H         1 <0>         0.1427 
      43 H15       -3.2148   -0.3317    4.5929 H         1 <0>         0.1415 
      44 H16        1.6249    1.0889    4.4629 H         1 <0>         0.1512 
      45 H17       -0.4497   -1.6947    0.4223 H         1 <0>         0.0736 
      46 H18       -1.4946   -0.6024   -0.4697 H         1 <0>         0.0900 
      47 H19        0.4614   -0.4792   -1.7580 H         1 <0>         0.0715 
      48 H20        1.5239   -0.6893   -0.3714 H         1 <0>         0.0728 
      49 H21        1.4758    1.5694    0.1824 H         1 <0>         0.0706 
      50 H22        1.2236    1.7071   -1.5526 H         1 <0>         0.0661 
      51 H23       -1.2631    1.7379   -1.1502 H         1 <0>         0.0735 
      52 H24       -0.4296    3.1030   -0.4183 H         1 <0>         0.0762 
      53 H25       -0.7394    2.2931    1.7664 H         1 <0>         0.0928 
      54 H26       -2.2245    1.7694    0.9845 H         1 <0>         0.0829 
@<TRIPOS>BOND
       1        1        2 1        
       2        1       29 1        
       3        1       30 1        
       4        1       31 1        
       5        2        3 1        
       6        2       32 1        
       7        2       33 1        
       8        3        4 2        
       9        3        5 am       
      10        5        6 1        
      11        5       34 1        
      12        6        7 1        
      13        6       35 1        
      14        6       36 1        
      15        7        8 2        
      16        7        9 1        
      17        9       10 1        
      18       10       11 1        
      19       10       12 1        
      20       10       37 1        
      21       11       38 1        
      22       11       39 1        
      23       11       40 1        
      24       12       13 2        
      25       12       14 am       
      26       14       15 1        
      27       14       41 1        
      28       15       20 ar       
      29       15       16 ar       
      30       16       17 ar       
      31       16       42 1        
      32       17       18 ar       
      33       17       43 1        
      34       18       23 1        
      35       18       19 ar       
      36       19       20 ar       
      37       19       21 1        
      38       20       44 1        
      39       21       22 1        
      40       22       28 1        
      41       22       23 1        
      42       22       24 1        
      43       24       25 1        
      44       24       45 1        
      45       24       46 1        
      46       25       26 1        
      47       25       47 1        
      48       25       48 1        
      49       26       27 1        
      50       26       49 1        
      51       26       50 1        
      52       27       28 1        
      53       27       51 1        
      54       27       52 1        
      55       28       53 1        
      56       28       54 1        

