#        1GCZ_R01_S0001_C0000_L00012_S0001_C0019_G0010_E0001.mol2
#        Tue Jun  6 09:58:52 2017
#        Descriptor:     24    32    21     8     8    10
#        Energy - RMSD - RMSD MassCentre:     -93.6430    999.9999    999.9999
#        Receptor:       1  Surface Point:     1  Conformer:     0
#        Ligand:        12  Surface Point:     1  Conformer:    19
#        BUDE Formal Charge: 0
#        ATOM Count: 54
#        Heavy ATOM Count: 28
@<TRIPOS>MOLECULE
ZINC61282011_1GCZ_R01_S0001_C0000_L00012_S0001_C0019_G0010_E0001
 54 56 0 0 0
SMALL
USER_CHARGES
@<TRIPOS>ATOM
       1 C1        -1.3074   -3.8137    6.5160 C.3       1 <0>        -0.1394 
       2 C2        -1.3110   -2.5692    7.3991 C.3       1 <0>        -0.1416 
       3 C3         0.0421   -1.9022    7.3329 C.2       1 <0>         0.5168 
       4 O1         0.9332   -2.3849    6.6360 O.2       1 <0>        -0.5327 
       5 N1         0.2704   -0.7919    8.0286 N.am      1 <0>        -0.7288 
       6 C4         1.5876   -0.1426    7.9642 C.3       1 <0>         0.1281 
       7 C5         1.7160    0.6049    6.6584 C.2       1 <0>         0.4647 
       8 O2         2.5242    0.2602    5.8486 O.2       1 <0>        -0.5000 
       9 O3         0.9171    1.6634    6.4058 O.3       1 <0>        -0.3169 
      10 C6         1.0751    2.3399    5.1560 C.3       1 <0>         0.0729 
      11 C7         0.1347    3.5405    5.1038 C.3       1 <0>        -0.1704 
      12 C8         0.7445    1.3932    4.0269 C.2       1 <0>         0.5166 
      13 O4         0.3627    0.2503    4.2734 O.2       1 <0>        -0.4890 
      14 N2         0.8661    1.7956    2.7651 N.am      1 <0>        -0.6633 
      15 C9         0.5565    0.9098    1.7061 C.ar      1 <0>         0.1513 
      16 C10       -0.0107   -0.3346    2.0056 C.ar      1 <0>        -0.1318 
      17 C11       -0.3374   -1.2505    0.9985 C.ar      1 <0>        -0.0823 
      18 C12       -0.0672   -0.8547   -0.3169 C.ar      1 <0>         0.0206 
      19 C13        0.4949    0.3943   -0.6062 C.ar      1 <0>         0.0545 
      20 C14        0.8280    1.3186    0.3911 C.ar      1 <0>        -0.1051 
      21 O5         0.7366    0.5136   -1.9730 O.3       1 <0>        -0.2879 
      22 C15       -0.1476   -0.5215   -2.4102 C.3       1 <0>         0.2651 
      23 O6        -0.3008   -1.5769   -1.4575 O.3       1 <0>        -0.2965 
      24 C16        0.4072   -1.1205   -3.8016 C.3       1 <0>        -0.1489 
      25 C17        0.4619   -0.0255   -4.8829 C.3       1 <0>        -0.1151 
      26 C18       -0.9243    0.6183   -5.0719 C.3       1 <0>        -0.1246 
      27 C19       -1.4404    1.2143   -3.7491 C.3       1 <0>        -0.1168 
      28 C20       -1.5143    0.1505   -2.6380 C.3       1 <0>        -0.1129 
      29 H1        -0.5531   -4.5106    6.8756 H         1 <0>         0.0628 
      30 H2        -2.2863   -4.2869    6.5534 H         1 <0>         0.0629 
      31 H3        -1.0800   -3.5294    5.4908 H         1 <0>         0.0642 
      32 H4        -1.5243   -2.8540    8.4273 H         1 <0>         0.0966 
      33 H5        -2.0734   -1.8769    7.0482 H         1 <0>         0.0967 
      34 H6        -0.4606   -0.3945    8.6012 H         1 <0>         0.4129 
      35 H7         1.6896    0.5555    8.7924 H         1 <0>         0.1177 
      36 H8         2.3684   -0.8976    8.0273 H         1 <0>         0.1174 
      37 H9         2.1037    2.6795    5.0540 H         1 <0>         0.1170 
      38 H10       -0.8926    3.2009    5.2182 H         1 <0>         0.0784 
      39 H11        0.3816    4.2290    5.9091 H         1 <0>         0.0805 
      40 H12        0.2457    4.0460    4.1467 H         1 <0>         0.0845 
      41 H13        1.1796    2.7340    2.5627 H         1 <0>         0.4164 
      42 H14       -0.2035   -0.5970    3.0354 H         1 <0>         0.1427 
      43 H15       -0.7754   -2.2107    1.2279 H         1 <0>         0.1415 
      44 H16        1.2596    2.2774    0.1447 H         1 <0>         0.1512 
      45 H17        1.3985   -1.5457   -3.6599 H         1 <0>         0.0736 
      46 H18       -0.2510   -1.9244   -4.1247 H         1 <0>         0.0900 
      47 H19        0.7859   -0.4615   -5.8256 H         1 <0>         0.0715 
      48 H20        1.1842    0.7377   -4.6013 H         1 <0>         0.0728 
      49 H21       -0.8580    1.4077   -5.8177 H         1 <0>         0.0706 
      50 H22       -1.6293   -0.1261   -5.4359 H         1 <0>         0.0661 
      51 H23       -2.4329    1.6311   -3.9078 H         1 <0>         0.0735 
      52 H24       -0.7849    2.0237   -3.4343 H         1 <0>         0.0762 
      53 H25       -1.8356    0.6175   -1.7094 H         1 <0>         0.0928 
      54 H26       -2.2533   -0.6021   -2.9049 H         1 <0>         0.0829 
@<TRIPOS>BOND
       1        1        2 1        
       2        1       29 1        
       3        1       30 1        
       4        1       31 1        
       5        2        3 1        
       6        2       32 1        
       7        2       33 1        
       8        3        4 2        
       9        3        5 am       
      10        5        6 1        
      11        5       34 1        
      12        6        7 1        
      13        6       35 1        
      14        6       36 1        
      15        7        8 2        
      16        7        9 1        
      17        9       10 1        
      18       10       11 1        
      19       10       12 1        
      20       10       37 1        
      21       11       38 1        
      22       11       39 1        
      23       11       40 1        
      24       12       13 2        
      25       12       14 am       
      26       14       15 1        
      27       14       41 1        
      28       15       20 ar       
      29       15       16 ar       
      30       16       17 ar       
      31       16       42 1        
      32       17       18 ar       
      33       17       43 1        
      34       18       23 1        
      35       18       19 ar       
      36       19       20 ar       
      37       19       21 1        
      38       20       44 1        
      39       21       22 1        
      40       22       28 1        
      41       22       23 1        
      42       22       24 1        
      43       24       25 1        
      44       24       45 1        
      45       24       46 1        
      46       25       26 1        
      47       25       47 1        
      48       25       48 1        
      49       26       27 1        
      50       26       49 1        
      51       26       50 1        
      52       27       28 1        
      53       27       51 1        
      54       27       52 1        
      55       28       53 1        
      56       28       54 1        

