#        1GCZ_R01_S0001_C0000_L00012_S0001_C0019_G0010_E0001.mol2
#        Tue Jun  6 14:13:36 2017
#        Descriptor:     28    31    20     7    10    13
#        Energy - RMSD - RMSD MassCentre:     -71.5725    999.9999    999.9999
#        Receptor:       1  Surface Point:     1  Conformer:     0
#        Ligand:        12  Surface Point:     1  Conformer:    19
#        BUDE Formal Charge: 0
#        ATOM Count: 54
#        Heavy ATOM Count: 28
@<TRIPOS>MOLECULE
ZINC61282011_1GCZ_R01_S0001_C0000_L00012_S0001_C0019_G0010_E0001
 54 56 0 0 0
SMALL
USER_CHARGES
@<TRIPOS>ATOM
       1 C1        -5.3594    1.9564    9.2002 C.3       1 <0>        -0.1394 
       2 C2        -4.7282    3.2568    9.6894 C.3       1 <0>        -0.1416 
       3 C3        -3.2918    3.0024   10.0797 C.2       1 <0>         0.5168 
       4 O1        -2.8156    1.8733    9.9738 O.2       1 <0>        -0.5327 
       5 N1        -2.5411    4.0000   10.5380 N.am      1 <0>        -0.7288 
       6 C4        -1.1428    3.7523   10.9179 C.3       1 <0>         0.1281 
       7 C5        -0.2965    3.6383    9.6725 C.2       1 <0>         0.4647 
       8 O2         0.2322    2.6017    9.4012 O.2       1 <0>        -0.5000 
       9 O3        -0.1370    4.7084    8.8651 O.3       1 <0>        -0.3169 
      10 C6         0.6733    4.5527    7.6972 C.3       1 <0>         0.0729 
      11 C7         0.7817    5.8898    6.9701 C.3       1 <0>        -0.1704 
      12 C8         0.0425    3.5319    6.7805 C.2       1 <0>         0.5166 
      13 O4        -1.0324    3.0152    7.0811 O.2       1 <0>        -0.4890 
      14 N2         0.6496    3.1914    5.6472 N.am      1 <0>        -0.6633 
      15 C9         0.0597    2.2353    4.7871 C.ar      1 <0>         0.1513 
      16 C10       -1.2274    1.7660    5.0747 C.ar      1 <0>        -0.1318 
      17 C11       -1.8600    0.8203    4.2588 C.ar      1 <0>        -0.0823 
      18 C12       -1.1378    0.3732    3.1459 C.ar      1 <0>         0.0206 
      19 C13        0.1466    0.8532    2.8639 C.ar      1 <0>         0.0545 
      20 C14        0.7912    1.7971    3.6722 C.ar      1 <0>        -0.1051 
      21 O5         0.6778    0.1977    1.7553 O.3       1 <0>        -0.2879 
      22 C15       -0.5549   -0.2861    1.2159 C.3       1 <0>         0.2651 
      23 O6        -1.5489   -0.5410    2.2119 O.3       1 <0>        -0.2965 
      24 C16       -0.2593   -1.6362    0.3839 C.3       1 <0>        -0.1489 
      25 C17        0.7147   -1.3591   -0.7762 C.3       1 <0>        -0.1151 
      26 C18        0.1619   -0.2536   -1.6948 C.3       1 <0>        -0.1246 
      27 C19       -0.0934    1.0433   -0.9046 C.3       1 <0>        -0.1168 
      28 C20       -1.0672    0.8123    0.2659 C.3       1 <0>        -0.1129 
      29 H1        -5.3369    1.2196   10.0005 H         1 <0>         0.0628 
      30 H2        -6.3904    2.1425    8.9067 H         1 <0>         0.0629 
      31 H3        -4.8001    1.5817    8.3455 H         1 <0>         0.0642 
      32 H4        -5.2781    3.6251   10.5530 H         1 <0>         0.0966 
      33 H5        -4.7614    3.9984    8.8942 H         1 <0>         0.0967 
      34 H6        -2.9310    4.9276   10.6253 H         1 <0>         0.4129 
      35 H7        -0.7803    4.5772   11.5276 H         1 <0>         0.1177 
      36 H8        -1.0789    2.8261   11.4850 H         1 <0>         0.1174 
      37 H9         1.6663    4.2148    7.9862 H         1 <0>         0.1170 
      38 H10       -0.2129    6.2327    6.6925 H         1 <0>         0.0784 
      39 H11        1.2483    6.6218    7.6259 H         1 <0>         0.0805 
      40 H12        1.3867    5.7668    6.0742 H         1 <0>         0.0845 
      41 H13        1.5322    3.6157    5.4004 H         1 <0>         0.4164 
      42 H14       -1.7481    2.1405    5.9437 H         1 <0>         0.1427 
      43 H15       -2.8531    0.4576    4.4791 H         1 <0>         0.1415 
      44 H16        1.7823    2.1546    3.4346 H         1 <0>         0.1512 
      45 H17        0.1576   -2.3985    1.0386 H         1 <0>         0.0736 
      46 H18       -1.1991   -2.0195   -0.0082 H         1 <0>         0.0900 
      47 H19        0.8574   -2.2686   -1.3561 H         1 <0>         0.0715 
      48 H20        1.6832   -1.0575   -0.3829 H         1 <0>         0.0728 
      49 H21        0.8769   -0.0527   -2.4899 H         1 <0>         0.0706 
      50 H22       -0.7650   -0.5876   -2.1562 H         1 <0>         0.0661 
      51 H23       -0.5133    1.7924   -1.5727 H         1 <0>         0.0735 
      52 H24        0.8497    1.4283   -0.5222 H         1 <0>         0.0762 
      53 H25       -1.1847    1.7363    0.8279 H         1 <0>         0.0928 
      54 H26       -2.0439    0.5337   -0.1243 H         1 <0>         0.0829 
@<TRIPOS>BOND
       1        1        2 1        
       2        1       29 1        
       3        1       30 1        
       4        1       31 1        
       5        2        3 1        
       6        2       32 1        
       7        2       33 1        
       8        3        4 2        
       9        3        5 am       
      10        5        6 1        
      11        5       34 1        
      12        6        7 1        
      13        6       35 1        
      14        6       36 1        
      15        7        8 2        
      16        7        9 1        
      17        9       10 1        
      18       10       11 1        
      19       10       12 1        
      20       10       37 1        
      21       11       38 1        
      22       11       39 1        
      23       11       40 1        
      24       12       13 2        
      25       12       14 am       
      26       14       15 1        
      27       14       41 1        
      28       15       20 ar       
      29       15       16 ar       
      30       16       17 ar       
      31       16       42 1        
      32       17       18 ar       
      33       17       43 1        
      34       18       23 1        
      35       18       19 ar       
      36       19       20 ar       
      37       19       21 1        
      38       20       44 1        
      39       21       22 1        
      40       22       28 1        
      41       22       23 1        
      42       22       24 1        
      43       24       25 1        
      44       24       45 1        
      45       24       46 1        
      46       25       26 1        
      47       25       47 1        
      48       25       48 1        
      49       26       27 1        
      50       26       49 1        
      51       26       50 1        
      52       27       28 1        
      53       27       51 1        
      54       27       52 1        
      55       28       53 1        
      56       28       54 1        

