#        1GCZ_R01_S0001_C0000_L00012_S0001_C0020_G0010_E0001.mol2
#        Tue Jun  6 09:58:52 2017
#        Descriptor:     24    31    22     8     8    11
#        Energy - RMSD - RMSD MassCentre:     -84.6019    999.9999    999.9999
#        Receptor:       1  Surface Point:     1  Conformer:     0
#        Ligand:        12  Surface Point:     1  Conformer:    20
#        BUDE Formal Charge: 0
#        ATOM Count: 54
#        Heavy ATOM Count: 28
@<TRIPOS>MOLECULE
ZINC61282011_1GCZ_R01_S0001_C0000_L00012_S0001_C0020_G0010_E0001
 54 56 0 0 0
SMALL
USER_CHARGES
@<TRIPOS>ATOM
       1 C1         0.4919   -4.0661    6.5600 C.3       1 <0>        -0.1394 
       2 C2         0.6801   -2.8219    7.4233 C.3       1 <0>        -0.1416 
       3 C3        -0.6065   -2.5174    8.1528 C.2       1 <0>         0.5168 
       4 O1        -1.5905   -3.2379    7.9930 O.2       1 <0>        -0.5327 
       5 N1        -0.6758   -1.4692    8.9686 N.am      1 <0>        -0.7288 
       6 C4         0.5002   -0.6083    9.1596 C.3       1 <0>         0.1281 
       7 C5         0.6648    0.2912    7.9579 C.2       1 <0>         0.4647 
       8 O2         1.6222    0.1773    7.2521 O.2       1 <0>        -0.5000 
       9 O3        -0.2703    1.2247    7.6809 O.3       1 <0>        -0.3169 
      10 C6        -0.0713    2.0532    6.5325 C.3       1 <0>         0.0729 
      11 C7        -1.1965    3.0802    6.4440 C.3       1 <0>        -0.1704 
      12 C8        -0.0736    1.1970    5.2887 C.2       1 <0>         0.5166 
      13 O4        -0.2734   -0.0136    5.3749 O.2       1 <0>        -0.4890 
      14 N2         0.1406    1.7521    4.0993 N.am      1 <0>        -0.6633 
      15 C9         0.1387    0.9512    2.9329 C.ar      1 <0>         0.1513 
      16 C10       -0.2307   -0.3953    3.0346 C.ar      1 <0>        -0.1318 
      17 C11       -0.2508   -1.2344    1.9140 C.ar      1 <0>        -0.0823 
      18 C12        0.1165   -0.6550    0.6937 C.ar      1 <0>         0.0206 
      19 C13        0.4787    0.6941    0.6017 C.ar      1 <0>         0.0545 
      20 C14        0.5049    1.5434    1.7143 C.ar      1 <0>        -0.1051 
      21 O5         0.8748    1.0034   -0.6976 O.3       1 <0>        -0.2879 
      22 C15        0.2568   -0.1082   -1.3510 C.3       1 <0>         0.2651 
      23 O6         0.1702   -1.2741   -0.5274 O.3       1 <0>        -0.2965 
      24 C16        1.0902   -0.4482   -2.6898 C.3       1 <0>        -0.1489 
      25 C17        1.0908    0.7546   -3.6514 C.3       1 <0>        -0.1151 
      26 C18       -0.3507    1.1775   -3.9901 C.3       1 <0>        -0.1246 
      27 C19       -1.1367    1.5287   -2.7132 C.3       1 <0>        -0.1168 
      28 C20       -1.1657    0.3500   -1.7225 C.3       1 <0>        -0.1129 
      29 H1        -0.2931   -3.8841    5.8288 H         1 <0>         0.0628 
      30 H2         1.4227   -4.2932    6.0446 H         1 <0>         0.0629 
      31 H3         0.2120   -4.9064    7.1919 H         1 <0>         0.0642 
      32 H4         0.9462   -1.9777    6.7907 H         1 <0>         0.0966 
      33 H5         1.4733   -2.9983    8.1468 H         1 <0>         0.0967 
      34 H6        -1.5359   -1.2645    9.4571 H         1 <0>         0.4129 
      35 H7         0.3641    0.0002   10.0512 H         1 <0>         0.1177 
      36 H8         1.3883   -1.2261    9.2737 H         1 <0>         0.1174 
      37 H9         0.8839    2.5673    6.6163 H         1 <0>         0.1170 
      38 H10       -2.1521    2.5650    6.3727 H         1 <0>         0.0784 
      39 H11       -1.1866    3.7058    7.3340 H         1 <0>         0.0805 
      40 H12       -1.0518    3.7007    5.5620 H         1 <0>         0.0845 
      41 H13        0.3047    2.7461    4.0286 H         1 <0>         0.4164 
      42 H14       -0.5085   -0.7992    3.9969 H         1 <0>         0.1427 
      43 H15       -0.5359   -2.2732    1.9908 H         1 <0>         0.1415 
      44 H16        0.7863    2.5818    1.6198 H         1 <0>         0.1512 
      45 H17        2.1139   -0.7170   -2.4381 H         1 <0>         0.0736 
      46 H18        0.6359   -1.3086   -3.1768 H         1 <0>         0.0900 
      47 H19        1.6103    0.4860   -4.5689 H         1 <0>         0.0715 
      48 H20        1.6205    1.5903   -3.1991 H         1 <0>         0.0728 
      49 H21       -0.3286    2.0452   -4.6461 H         1 <0>         0.0706 
      50 H22       -0.8559    0.3722   -4.5192 H         1 <0>         0.0661 
      51 H23       -2.1578    1.7908   -2.9826 H         1 <0>         0.0735 
      52 H24       -0.6850    2.3950   -2.2344 H         1 <0>         0.0762 
      53 H25       -1.6861    0.6509   -0.8158 H         1 <0>         0.0928 
      54 H26       -1.7154   -0.4798   -2.1618 H         1 <0>         0.0829 
@<TRIPOS>BOND
       1        1        2 1        
       2        1       29 1        
       3        1       30 1        
       4        1       31 1        
       5        2        3 1        
       6        2       32 1        
       7        2       33 1        
       8        3        4 2        
       9        3        5 am       
      10        5        6 1        
      11        5       34 1        
      12        6        7 1        
      13        6       35 1        
      14        6       36 1        
      15        7        8 2        
      16        7        9 1        
      17        9       10 1        
      18       10       11 1        
      19       10       12 1        
      20       10       37 1        
      21       11       38 1        
      22       11       39 1        
      23       11       40 1        
      24       12       13 2        
      25       12       14 am       
      26       14       15 1        
      27       14       41 1        
      28       15       20 ar       
      29       15       16 ar       
      30       16       17 ar       
      31       16       42 1        
      32       17       18 ar       
      33       17       43 1        
      34       18       23 1        
      35       18       19 ar       
      36       19       20 ar       
      37       19       21 1        
      38       20       44 1        
      39       21       22 1        
      40       22       28 1        
      41       22       23 1        
      42       22       24 1        
      43       24       25 1        
      44       24       45 1        
      45       24       46 1        
      46       25       26 1        
      47       25       47 1        
      48       25       48 1        
      49       26       27 1        
      50       26       49 1        
      51       26       50 1        
      52       27       28 1        
      53       27       51 1        
      54       27       52 1        
      55       28       53 1        
      56       28       54 1        

