#        1GCZ_R01_S0001_C0000_L00012_S0001_C0020_G0010_E0001.mol2
#        Tue Jun  6 14:13:38 2017
#        Descriptor:     24    30    27     8     8    10
#        Energy - RMSD - RMSD MassCentre:     -81.8686    999.9999    999.9999
#        Receptor:       1  Surface Point:     1  Conformer:     0
#        Ligand:        12  Surface Point:     1  Conformer:    20
#        BUDE Formal Charge: 0
#        ATOM Count: 54
#        Heavy ATOM Count: 28
@<TRIPOS>MOLECULE
ZINC61282011_1GCZ_R01_S0001_C0000_L00012_S0001_C0020_G0010_E0001
 54 56 0 0 0
SMALL
USER_CHARGES
@<TRIPOS>ATOM
       1 C1         3.4310   -2.8211    5.1175 C.3       1 <0>        -0.1394 
       2 C2         2.5988   -2.0414    6.1316 C.3       1 <0>        -0.1416 
       3 C3         1.5385   -2.9459    6.7128 C.2       1 <0>         0.5168 
       4 O1         1.4580   -4.1166    6.3442 O.2       1 <0>        -0.5327 
       5 N1         0.6911   -2.4764    7.6241 N.am      1 <0>        -0.7288 
       6 C4         0.7875   -1.0773    8.0647 C.3       1 <0>         0.1281 
       7 C5         0.2042   -0.1750    7.0036 C.2       1 <0>         0.4647 
       8 O2         0.9069    0.5977    6.4230 O.2       1 <0>        -0.5000 
       9 O3        -1.1119   -0.2415    6.7105 O.3       1 <0>        -0.3169 
      10 C6        -1.6187    0.6325    5.6986 C.3       1 <0>         0.0729 
      11 C7        -3.1287    0.4491    5.5763 C.3       1 <0>        -0.1704 
      12 C8        -0.9642    0.3048    4.3778 C.2       1 <0>         0.5166 
      13 O4        -0.1653   -0.6273    4.3009 O.2       1 <0>        -0.4890 
      14 N2        -1.2518    1.0243    3.2969 N.am      1 <0>        -0.6633 
      15 C9        -0.6395    0.7184    2.0585 C.ar      1 <0>         0.1513 
      16 C10        0.1545   -0.4302    1.9593 C.ar      1 <0>        -0.1318 
      17 C11        0.7844   -0.7820    0.7594 C.ar      1 <0>        -0.0823 
      18 C12        0.5767    0.0738   -0.3289 C.ar      1 <0>         0.0206 
      19 C13       -0.2239    1.2170   -0.2207 C.ar      1 <0>         0.0545 
      20 C14       -0.8578    1.5812    0.9732 C.ar      1 <0>        -0.1051 
      21 O5        -0.2064    1.9372   -1.4131 O.3       1 <0>        -0.2879 
      22 C15        0.2479    0.8808   -2.2628 C.3       1 <0>         0.2651 
      23 O6         1.0854   -0.0656   -1.5934 O.3       1 <0>        -0.2965 
      24 C16        1.0441    1.5267   -3.5084 C.3       1 <0>        -0.1489 
      25 C17        0.1231    2.4556   -4.3210 C.3       1 <0>        -0.1151 
      26 C18       -1.1274    1.6946   -4.7991 C.3       1 <0>        -0.1246 
      27 C19       -1.9017    1.1022   -3.6070 C.3       1 <0>        -0.1168 
      28 C20       -1.0174    0.1622   -2.7667 C.3       1 <0>        -0.1129 
      29 H1         2.7870   -3.1710    4.3133 H         1 <0>         0.0628 
      30 H2         4.2033   -2.1731    4.7084 H         1 <0>         0.0629 
      31 H3         3.8948   -3.6738    5.6088 H         1 <0>         0.0642 
      32 H4         2.1233   -1.1964    5.6382 H         1 <0>         0.0966 
      33 H5         3.2438   -1.6802    6.9299 H         1 <0>         0.0967 
      34 H6        -0.0185   -3.0804    8.0136 H         1 <0>         0.4129 
      35 H7         0.2339   -0.9496    8.9925 H         1 <0>         0.1177 
      36 H8         1.8316   -0.8182    8.2262 H         1 <0>         0.1174 
      37 H9        -1.3985    1.6640    5.9655 H         1 <0>         0.1170 
      38 H10       -3.3482   -0.5856    5.3215 H         1 <0>         0.0784 
      39 H11       -3.6015    0.6981    6.5239 H         1 <0>         0.0805 
      40 H12       -3.5110    1.1043    4.7963 H         1 <0>         0.0845 
      41 H13       -1.9078    1.7896    3.3600 H         1 <0>         0.4164 
      42 H14        0.2854   -1.0626    2.8249 H         1 <0>         0.1427 
      43 H15        1.3969   -1.6680    0.6811 H         1 <0>         0.1415 
      44 H16       -1.4724    2.4672    1.0335 H         1 <0>         0.1512 
      45 H17        1.9080    2.0852   -3.1544 H         1 <0>         0.0736 
      46 H18        1.4112    0.7239   -4.1445 H         1 <0>         0.0900 
      47 H19        0.6628    2.8368   -5.1855 H         1 <0>         0.0715 
      48 H20       -0.1766    3.3057   -3.7119 H         1 <0>         0.0728 
      49 H21       -1.7779    2.3745   -5.3454 H         1 <0>         0.0706 
      50 H22       -0.8353    0.8956   -5.4773 H         1 <0>         0.0661 
      51 H23       -2.7589    0.5446   -3.9788 H         1 <0>         0.0735 
      52 H24       -2.2750    1.9083   -2.9786 H         1 <0>         0.0762 
      53 H25       -1.5824   -0.1974   -1.9095 H         1 <0>         0.0928 
      54 H26       -0.7351   -0.7015   -3.3651 H         1 <0>         0.0829 
@<TRIPOS>BOND
       1        1        2 1        
       2        1       29 1        
       3        1       30 1        
       4        1       31 1        
       5        2        3 1        
       6        2       32 1        
       7        2       33 1        
       8        3        4 2        
       9        3        5 am       
      10        5        6 1        
      11        5       34 1        
      12        6        7 1        
      13        6       35 1        
      14        6       36 1        
      15        7        8 2        
      16        7        9 1        
      17        9       10 1        
      18       10       11 1        
      19       10       12 1        
      20       10       37 1        
      21       11       38 1        
      22       11       39 1        
      23       11       40 1        
      24       12       13 2        
      25       12       14 am       
      26       14       15 1        
      27       14       41 1        
      28       15       20 ar       
      29       15       16 ar       
      30       16       17 ar       
      31       16       42 1        
      32       17       18 ar       
      33       17       43 1        
      34       18       23 1        
      35       18       19 ar       
      36       19       20 ar       
      37       19       21 1        
      38       20       44 1        
      39       21       22 1        
      40       22       28 1        
      41       22       23 1        
      42       22       24 1        
      43       24       25 1        
      44       24       45 1        
      45       24       46 1        
      46       25       26 1        
      47       25       47 1        
      48       25       48 1        
      49       26       27 1        
      50       26       49 1        
      51       26       50 1        
      52       27       28 1        
      53       27       51 1        
      54       27       52 1        
      55       28       53 1        
      56       28       54 1        

