#        1GCZ_R01_S0001_C0000_L00003_S0001_C0019_G0010_E0001.mol2
#        Tue Jun  6 09:54:52 2017
#        Descriptor:     18    19    10    10     7    13
#        Energy - RMSD - RMSD MassCentre:     -60.8698    999.9999    999.9999
#        Receptor:       1  Surface Point:     1  Conformer:     0
#        Ligand:         3  Surface Point:     1  Conformer:    19
#        BUDE Formal Charge: 0
#        ATOM Count: 58
#        Heavy ATOM Count: 30
@<TRIPOS>MOLECULE
ZINC61580633_1GCZ_R01_S0001_C0000_L00003_S0001_C0019_G0010_E0001
 58 59 0 0 0
SMALL
USER_CHARGES
@<TRIPOS>ATOM
       1 C1         1.5104   -5.9180    6.7754 C.3       1 <0>        -0.1532 
       2 C2         3.0213   -5.8879    6.5635 C.3       1 <0>        -0.1224 
       3 C3         3.4054   -4.6080    5.8225 C.3       1 <0>        -0.1198 
       4 C4         4.9183   -4.5779    5.6103 C.3       1 <0>         0.0610 
       5 O1         5.2778   -3.3800    4.9169 O.3       1 <0>        -0.3878 
       6 C5         4.9203   -2.2079    5.6539 C.3       1 <0>         0.0487 
       7 C6         5.3290   -0.9658    4.8633 C.3       1 <0>         0.1244 
       8 N1         4.9615    0.2390    5.6209 N.am      1 <0>        -0.7216 
       9 C7         5.6427    0.5700    6.7143 C.2       1 <0>         0.5161 
      10 O2         6.5797   -0.1314    7.0919 O.2       1 <0>        -0.5151 
      11 C8         5.2653    1.8077    7.4926 C.3       1 <0>         0.0490 
      12 O3         4.0062    1.5987    8.1375 O.3       1 <0>        -0.3194 
      13 C9         2.9226    1.3920    7.3593 C.2       1 <0>         0.5417 
      14 O4         3.0351    1.3874    6.1444 O.2       1 <0>        -0.5337 
      15 C10        1.5976    1.1709    7.9800 C.2       1 <0>        -0.2559 
      16 C11        1.3519    1.1431    9.4393 C.2       1 <0>        -0.0791 
      17 C12        0.0708    0.9121    9.7351 C.2       1 <0>        -0.2585 
      18 S1        -0.9380    0.7166    8.2941 S.3       1 <0>         0.3028 
      19 C13        0.4828    0.9600    7.2672 C.2       1 <0>         0.0893 
      20 N2         0.4870    0.9330    5.8974 N.am      1 <0>        -0.6099 
      21 C14       -0.6448    0.7199    5.2322 C.2       1 <0>         0.5551 
      22 O5        -1.6960    0.5471    5.8471 O.2       1 <0>        -0.4939 
      23 C15       -0.6387    0.6912    3.7525 C.ar      1 <0>        -0.1466 
      24 C16       -1.8519    0.4607    3.0929 C.ar      1 <0>        -0.0772 
      25 C17       -1.8972    0.3491    1.6982 C.ar      1 <0>        -0.1241 
      26 C18       -0.7272    0.4558    0.9372 C.ar      1 <0>        -0.0446 
      27 C19        0.4787    0.7391    1.5895 C.ar      1 <0>        -0.1261 
      28 C20        0.5149    0.8790    2.9820 C.ar      1 <0>        -0.0460 
      29 C21       -0.7877    0.2706   -0.5603 C.3       1 <0>        -0.0928 
      30 C22       -0.5659   -1.2005   -0.8993 C.3       1 <0>        -0.1485 
      31 H1         1.0090   -5.9058    5.8099 H         1 <0>         0.0567 
      32 H2         1.2084   -5.0465    7.3524 H         1 <0>         0.0554 
      33 H3         1.2385   -6.8229    7.3148 H         1 <0>         0.0557 
      34 H4         3.5240   -5.9127    7.5280 H         1 <0>         0.0632 
      35 H5         3.3229   -6.7516    5.9744 H         1 <0>         0.0635 
      36 H6         2.9039   -4.5824    4.8575 H         1 <0>         0.0711 
      37 H7         3.1052   -3.7436    6.4111 H         1 <0>         0.0704 
      38 H8         5.4211   -4.6027    6.5749 H         1 <0>         0.0498 
      39 H9         5.2197   -5.4415    5.0211 H         1 <0>         0.0505 
      40 H10        5.4334   -2.2113    6.6133 H         1 <0>         0.0584 
      41 H11        3.8447   -2.1953    5.8173 H         1 <0>         0.0702 
      42 H12        4.8159   -0.9608    3.9041 H         1 <0>         0.0872 
      43 H13        6.4046   -0.9769    4.7000 H         1 <0>         0.0805 
      44 H14        4.1922    0.8157    5.3117 H         1 <0>         0.4058 
      45 H15        6.0266    2.0117    8.2425 H         1 <0>         0.1008 
      46 H16        5.1881    2.6543    6.8135 H         1 <0>         0.0999 
      47 H17        2.1346    1.3063   10.1653 H         1 <0>         0.1557 
      48 H18       -0.2965    0.8660   10.7496 H         1 <0>         0.1929 
      49 H19        1.3500    1.0750    5.3925 H         1 <0>         0.4317 
      50 H20       -2.7632    0.3631    3.6641 H         1 <0>         0.1287 
      51 H21       -2.8398    0.1774    1.1999 H         1 <0>         0.1326 
      52 H22        1.3788    0.8520    1.0033 H         1 <0>         0.1342 
      53 H23        1.4610    1.1557    3.4233 H         1 <0>         0.1410 
      54 H24       -0.0134    0.8727   -1.0311 H         1 <0>         0.0777 
      55 H25       -1.7636    0.5844   -0.9248 H         1 <0>         0.0771 
      56 H26       -1.3479   -1.8002   -0.4384 H         1 <0>         0.0623 
      57 H27        0.4044   -1.5168   -0.5220 H         1 <0>         0.0572 
      58 H28       -0.5961   -1.3317   -1.9790 H         1 <0>         0.0578 
@<TRIPOS>BOND
       1        1        2 1        
       2        1       31 1        
       3        1       32 1        
       4        1       33 1        
       5        2        3 1        
       6        2       34 1        
       7        2       35 1        
       8        3        4 1        
       9        3       36 1        
      10        3       37 1        
      11        4        5 1        
      12        4       38 1        
      13        4       39 1        
      14        5        6 1        
      15        6        7 1        
      16        6       40 1        
      17        6       41 1        
      18        7        8 1        
      19        7       42 1        
      20        7       43 1        
      21        8        9 am       
      22        8       44 1        
      23        9       10 2        
      24        9       11 1        
      25       11       12 1        
      26       11       45 1        
      27       11       46 1        
      28       12       13 1        
      29       13       14 2        
      30       13       15 1        
      31       15       19 2        
      32       15       16 1        
      33       16       17 2        
      34       16       47 1        
      35       17       18 1        
      36       17       48 1        
      37       18       19 1        
      38       19       20 1        
      39       20       21 am       
      40       20       49 1        
      41       21       22 2        
      42       21       23 1        
      43       23       28 ar       
      44       23       24 ar       
      45       24       25 ar       
      46       24       50 1        
      47       25       26 ar       
      48       25       51 1        
      49       26       27 ar       
      50       26       29 1        
      51       27       28 ar       
      52       27       52 1        
      53       28       53 1        
      54       29       30 1        
      55       29       54 1        
      56       29       55 1        
      57       30       56 1        
      58       30       57 1        
      59       30       58 1        

