#        1GCZ_R01_S0001_C0000_L00012_S0001_C0021_G0010_E0001.mol2
#        Tue Jun  6 14:13:40 2017
#        Descriptor:     14    34    25    10     9    12
#        Energy - RMSD - RMSD MassCentre:     -82.3641    999.9999    999.9999
#        Receptor:       1  Surface Point:     1  Conformer:     0
#        Ligand:        12  Surface Point:     1  Conformer:    21
#        BUDE Formal Charge: 0
#        ATOM Count: 54
#        Heavy ATOM Count: 28
@<TRIPOS>MOLECULE
ZINC61282011_1GCZ_R01_S0001_C0000_L00012_S0001_C0021_G0010_E0001
 54 56 0 0 0
SMALL
USER_CHARGES
@<TRIPOS>ATOM
       1 C1         8.0860    1.8066    5.1968 C.3       1 <0>        -0.1394 
       2 C2         7.7216    2.1636    6.6350 C.3       1 <0>        -0.1416 
       3 C3         6.5474    1.3242    7.0790 C.2       1 <0>         0.5168 
       4 O1         6.6634    0.5603    8.0360 O.2       1 <0>        -0.5327 
       5 N1         5.3871    1.4113    6.4348 N.am      1 <0>        -0.7288 
       6 C4         4.2441    0.5942    6.8670 C.3       1 <0>         0.1281 
       7 C5         3.6395    1.1954    8.1133 C.2       1 <0>         0.4647 
       8 O2         3.6776    0.5954    9.1460 O.2       1 <0>        -0.5000 
       9 O3         3.0556    2.4114    8.0608 O.3       1 <0>        -0.3169 
      10 C6         3.0342    3.0914    6.8031 C.3       1 <0>         0.0729 
      11 C7         2.3993    4.4679    6.9788 C.3       1 <0>        -0.1704 
      12 C8         2.2263    2.2885    5.8116 C.2       1 <0>         0.5166 
      13 O4         2.7439    1.9025    4.7647 O.2       1 <0>        -0.4890 
      14 N2         0.9545    1.9985    6.0705 N.am      1 <0>        -0.6633 
      15 C9         0.1963    1.2461    5.1426 C.ar      1 <0>         0.1513 
      16 C10       -1.1261    0.9125    5.4583 C.ar      1 <0>        -0.1318 
      17 C11       -1.9227    0.1703    4.5783 C.ar      1 <0>        -0.0823 
      18 C12       -1.3266   -0.2171    3.3723 C.ar      1 <0>         0.0206 
      19 C13       -0.0053    0.1266    3.0635 C.ar      1 <0>         0.0545 
      20 C14        0.8028    0.8667    3.9349 C.ar      1 <0>        -0.1051 
      21 O5         0.3738   -0.4417    1.8493 O.3       1 <0>        -0.2879 
      22 C15       -0.9395   -0.6889    1.3407 C.3       1 <0>         0.2651 
      23 O6        -1.9061   -0.9416    2.3639 O.3       1 <0>        -0.2965 
      24 C16       -0.8739   -1.9459    0.3317 C.3       1 <0>        -0.1489 
      25 C17        0.0674   -1.6474   -0.8499 C.3       1 <0>        -0.1151 
      26 C18       -0.3766   -0.3699   -1.5865 C.3       1 <0>        -0.1246 
      27 C19       -0.4120    0.8351   -0.6281 C.3       1 <0>        -0.1168 
      28 C20       -1.3461    0.5805    0.5694 C.3       1 <0>        -0.1129 
      29 H1         7.2387    2.0141    4.5466 H         1 <0>         0.0628 
      30 H2         8.9403    2.4019    4.8814 H         1 <0>         0.0629 
      31 H3         8.3381    0.7498    5.1389 H         1 <0>         0.0642 
      32 H4         7.4556    3.2170    6.6915 H         1 <0>         0.0966 
      33 H5         8.5724    1.9683    7.2845 H         1 <0>         0.0967 
      34 H6         5.2908    2.0383    5.6489 H         1 <0>         0.4129 
      35 H7         3.4960    0.5695    6.0775 H         1 <0>         0.1177 
      36 H8         4.5809   -0.4181    7.0800 H         1 <0>         0.1174 
      37 H9         4.0512    3.2048    6.4339 H         1 <0>         0.1170 
      38 H10        1.3866    4.3536    7.3598 H         1 <0>         0.0784 
      39 H11        2.9888    5.0511    7.6830 H         1 <0>         0.0805 
      40 H12        2.3707    4.9786    6.0185 H         1 <0>         0.0845 
      41 H13        0.5296    2.3154    6.9301 H         1 <0>         0.4164 
      42 H14       -1.5454    1.2344    6.4001 H         1 <0>         0.1427 
      43 H15       -2.9432   -0.0877    4.8202 H         1 <0>         0.1415 
      44 H16        1.8196    1.1217    3.6754 H         1 <0>         0.1512 
      45 H17       -0.5311   -2.8340    0.8581 H         1 <0>         0.0736 
      46 H18       -1.8761   -2.1510   -0.0389 H         1 <0>         0.0900 
      47 H19        0.0548   -2.4843   -1.5450 H         1 <0>         0.0715 
      48 H20        1.0870   -1.5264   -0.4901 H         1 <0>         0.0728 
      49 H21        0.3169   -0.1607   -2.3982 H         1 <0>         0.0706 
      50 H22       -1.3630   -0.5193   -2.0206 H         1 <0>         0.0661 
      51 H23       -0.7600    1.7124   -1.1693 H         1 <0>         0.0735 
      52 H24        0.5934    1.0426   -0.2672 H         1 <0>         0.0762 
      53 H25       -1.3077    1.4308    1.2468 H         1 <0>         0.0928 
      54 H26       -2.3704    0.4827    0.2160 H         1 <0>         0.0829 
@<TRIPOS>BOND
       1        1        2 1        
       2        1       29 1        
       3        1       30 1        
       4        1       31 1        
       5        2        3 1        
       6        2       32 1        
       7        2       33 1        
       8        3        4 2        
       9        3        5 am       
      10        5        6 1        
      11        5       34 1        
      12        6        7 1        
      13        6       35 1        
      14        6       36 1        
      15        7        8 2        
      16        7        9 1        
      17        9       10 1        
      18       10       11 1        
      19       10       12 1        
      20       10       37 1        
      21       11       38 1        
      22       11       39 1        
      23       11       40 1        
      24       12       13 2        
      25       12       14 am       
      26       14       15 1        
      27       14       41 1        
      28       15       20 ar       
      29       15       16 ar       
      30       16       17 ar       
      31       16       42 1        
      32       17       18 ar       
      33       17       43 1        
      34       18       23 1        
      35       18       19 ar       
      36       19       20 ar       
      37       19       21 1        
      38       20       44 1        
      39       21       22 1        
      40       22       28 1        
      41       22       23 1        
      42       22       24 1        
      43       24       25 1        
      44       24       45 1        
      45       24       46 1        
      46       25       26 1        
      47       25       47 1        
      48       25       48 1        
      49       26       27 1        
      50       26       49 1        
      51       26       50 1        
      52       27       28 1        
      53       27       51 1        
      54       27       52 1        
      55       28       53 1        
      56       28       54 1        

