#        1GCZ_R01_S0001_C0000_L00012_S0001_C0022_G0010_E0001.mol2
#        Tue Jun  6 09:58:54 2017
#        Descriptor:      7    23     3     7     9    11
#        Energy - RMSD - RMSD MassCentre:     -90.8216    999.9999    999.9999
#        Receptor:       1  Surface Point:     1  Conformer:     0
#        Ligand:        12  Surface Point:     1  Conformer:    22
#        BUDE Formal Charge: 0
#        ATOM Count: 54
#        Heavy ATOM Count: 28
@<TRIPOS>MOLECULE
ZINC61282011_1GCZ_R01_S0001_C0000_L00012_S0001_C0022_G0010_E0001
 54 56 0 0 0
SMALL
USER_CHARGES
@<TRIPOS>ATOM
       1 C1        -5.0488    1.8353    8.1369 C.3       1 <0>        -0.1394 
       2 C2        -4.6769    2.3818    9.5123 C.3       1 <0>        -0.1416 
       3 C3        -3.1788    2.5496    9.5981 C.2       1 <0>         0.5168 
       4 O1        -2.6941    3.6626    9.7967 O.2       1 <0>        -0.5327 
       5 N1        -2.3827    1.4933    9.4590 N.am      1 <0>        -0.7288 
       6 C4        -0.9242    1.6568    9.5425 C.3       1 <0>         0.1281 
       7 C5        -0.4117    2.2589    8.2561 C.2       1 <0>         0.4647 
       8 O2         0.0782    3.3489    8.2592 O.2       1 <0>        -0.5000 
       9 O3        -0.5070    1.5656    7.1017 O.3       1 <0>        -0.3169 
      10 C6        -0.0080    2.1768    5.9091 C.3       1 <0>         0.0729 
      11 C7        -0.7599    3.4793    5.6510 C.3       1 <0>        -0.1704 
      12 C8        -0.2104    1.2402    4.7420 C.2       1 <0>         0.5166 
      13 O4        -0.7745    0.1601    4.9098 O.2       1 <0>        -0.4890 
      14 N2         0.2216    1.5833    3.5319 N.am      1 <0>        -0.6633 
      15 C9         0.0326    0.7069    2.4373 C.ar      1 <0>         0.1513 
      16 C10       -0.7350   -0.4497    2.6183 C.ar      1 <0>        -0.1318 
      17 C11       -0.9552   -1.3523    1.5710 C.ar      1 <0>        -0.0823 
      18 C12       -0.3687   -1.0353    0.3400 C.ar      1 <0>         0.0206 
      19 C13        0.3924    0.1270    0.1678 C.ar      1 <0>         0.0545 
      20 C14        0.6219    1.0367    1.2068 C.ar      1 <0>        -0.1051 
      21 O5         0.9276    0.1713   -1.1177 O.3       1 <0>        -0.2879 
      22 C15        0.0326   -0.7637   -1.7251 C.3       1 <0>         0.2651 
      23 O6        -0.4466   -1.7613   -0.8194 O.3       1 <0>        -0.2965 
      24 C16        0.7872   -1.4704   -2.9635 C.3       1 <0>        -0.1489 
      25 C17        1.2027   -0.4261   -4.0161 C.3       1 <0>        -0.1151 
      26 C18       -0.0221    0.3731   -4.4985 C.3       1 <0>        -0.1246 
      27 C19       -0.7253    1.0700   -3.3188 C.3       1 <0>        -0.1168 
      28 C20       -1.1618    0.0599   -2.2414 C.3       1 <0>        -0.1129 
      29 H1        -4.5767    0.8655    7.9930 H         1 <0>         0.0628 
      30 H2        -6.1292    1.7267    8.0705 H         1 <0>         0.0629 
      31 H3        -4.7048    2.5244    7.3684 H         1 <0>         0.0642 
      32 H4        -5.0080    1.6865   10.2810 H         1 <0>         0.0966 
      33 H5        -5.1585    3.3457    9.6625 H         1 <0>         0.0967 
      34 H6        -2.7795    0.5790    9.2960 H         1 <0>         0.4129 
      35 H7        -0.6794    2.3152   10.3732 H         1 <0>         0.1177 
      36 H8        -0.4582    0.6862    9.6988 H         1 <0>         0.1174 
      37 H9         1.0532    2.3867    6.0249 H         1 <0>         0.1170 
      38 H10       -1.8225    3.2697    5.5477 H         1 <0>         0.0784 
      39 H11       -0.6032    4.1593    6.4858 H         1 <0>         0.0805 
      40 H12       -0.3891    3.9362    4.7358 H         1 <0>         0.0845 
      41 H13        0.6847    2.4701    3.3941 H         1 <0>         0.4164 
      42 H14       -1.1701   -0.6532    3.5857 H         1 <0>         0.1427 
      43 H15       -1.5475   -2.2448    1.7090 H         1 <0>         0.1415 
      44 H16        1.2113    1.9281    1.0510 H         1 <0>         0.1512 
      45 H17        1.6661   -2.0069   -2.6124 H         1 <0>         0.0736 
      46 H18        0.1164   -2.1995   -3.4133 H         1 <0>         0.0900 
      47 H19        1.6599   -0.9286   -4.8659 H         1 <0>         0.0715 
      48 H20        1.9394    0.2536   -3.5931 H         1 <0>         0.0728 
      49 H21        0.2964    1.1239   -5.2187 H         1 <0>         0.0706 
      50 H22       -0.7225   -0.2927   -4.9984 H         1 <0>         0.0661 
      51 H23       -1.6029    1.5976   -3.6868 H         1 <0>         0.0735 
      52 H24       -0.0547    1.8046   -2.8779 H         1 <0>         0.0762 
      53 H25       -1.6095    0.5922   -1.4051 H         1 <0>         0.0928 
      54 H26       -1.9164   -0.6068   -2.6537 H         1 <0>         0.0829 
@<TRIPOS>BOND
       1        1        2 1        
       2        1       29 1        
       3        1       30 1        
       4        1       31 1        
       5        2        3 1        
       6        2       32 1        
       7        2       33 1        
       8        3        4 2        
       9        3        5 am       
      10        5        6 1        
      11        5       34 1        
      12        6        7 1        
      13        6       35 1        
      14        6       36 1        
      15        7        8 2        
      16        7        9 1        
      17        9       10 1        
      18       10       11 1        
      19       10       12 1        
      20       10       37 1        
      21       11       38 1        
      22       11       39 1        
      23       11       40 1        
      24       12       13 2        
      25       12       14 am       
      26       14       15 1        
      27       14       41 1        
      28       15       20 ar       
      29       15       16 ar       
      30       16       17 ar       
      31       16       42 1        
      32       17       18 ar       
      33       17       43 1        
      34       18       23 1        
      35       18       19 ar       
      36       19       20 ar       
      37       19       21 1        
      38       20       44 1        
      39       21       22 1        
      40       22       28 1        
      41       22       23 1        
      42       22       24 1        
      43       24       25 1        
      44       24       45 1        
      45       24       46 1        
      46       25       26 1        
      47       25       47 1        
      48       25       48 1        
      49       26       27 1        
      50       26       49 1        
      51       26       50 1        
      52       27       28 1        
      53       27       51 1        
      54       27       52 1        
      55       28       53 1        
      56       28       54 1        

