#        1GCZ_R01_S0001_C0000_L00012_S0001_C0022_G0010_E0001.mol2
#        Tue Jun  6 14:13:42 2017
#        Descriptor:      6    23     3     7     9    11
#        Energy - RMSD - RMSD MassCentre:     -83.4401    999.9999    999.9999
#        Receptor:       1  Surface Point:     1  Conformer:     0
#        Ligand:        12  Surface Point:     1  Conformer:    22
#        BUDE Formal Charge: 0
#        ATOM Count: 54
#        Heavy ATOM Count: 28
@<TRIPOS>MOLECULE
ZINC61282011_1GCZ_R01_S0001_C0000_L00012_S0001_C0022_G0010_E0001
 54 56 0 0 0
SMALL
USER_CHARGES
@<TRIPOS>ATOM
       1 C1        -4.7952    0.7970    8.3882 C.3       1 <0>        -0.1394 
       2 C2        -4.4128    1.2587    9.7916 C.3       1 <0>        -0.1416 
       3 C3        -2.9469    1.6197    9.8197 C.2       1 <0>         0.5168 
       4 O1        -2.6000    2.7648   10.1049 O.2       1 <0>        -0.5327 
       5 N1        -2.0302    0.6987    9.5362 N.am      1 <0>        -0.7288 
       6 C4        -0.6031    1.0502    9.5636 C.3       1 <0>         0.1281 
       7 C5        -0.2545    1.8332    8.3204 C.2       1 <0>         0.4647 
       8 O2         0.0884    2.9746    8.4088 O.2       1 <0>        -0.5000 
       9 O3        -0.3304    1.2436    7.1084 O.3       1 <0>        -0.3169 
      10 C6         0.0094    2.0251    5.9601 C.3       1 <0>         0.0729 
      11 C7        -0.9203    3.2318    5.8715 C.3       1 <0>        -0.1704 
      12 C8        -0.1414    1.1822    4.7162 C.2       1 <0>         0.5166 
      13 O4        -0.5485    0.0247    4.8024 O.2       1 <0>        -0.4890 
      14 N2         0.1659    1.6918    3.5268 N.am      1 <0>        -0.6633 
      15 C9         0.0249    0.9033    2.3604 C.ar      1 <0>         0.1513 
      16 C10       -0.5727   -0.3586    2.4621 C.ar      1 <0>        -0.1318 
      17 C11       -0.7382   -1.1814    1.3416 C.ar      1 <0>        -0.0823 
      18 C12       -0.2758   -0.6747    0.1212 C.ar      1 <0>         0.0206 
      19 C13        0.3151    0.5910    0.0292 C.ar      1 <0>         0.0545 
      20 C14        0.4884    1.4230    1.1418 C.ar      1 <0>        -0.1051 
      21 O5         0.7589    0.8269   -1.2701 O.3       1 <0>        -0.2879 
      22 C15       -0.0428   -0.1604   -1.9235 C.3       1 <0>         0.2651 
      23 O6        -0.3305   -1.2936   -1.0999 O.3       1 <0>        -0.2965 
      24 C16        0.7189   -0.6400   -3.2623 C.3       1 <0>        -0.1489 
      25 C17        0.9284    0.5443   -4.2239 C.3       1 <0>        -0.1151 
      26 C18       -0.4178    1.2112   -4.5626 C.3       1 <0>        -0.1246 
      27 C19       -1.1309    1.6935   -3.2857 C.3       1 <0>        -0.1168 
      28 C20       -1.3641    0.5378   -2.2949 C.3       1 <0>        -0.1129 
      29 H1        -4.2107   -0.0821    8.1246 H         1 <0>         0.0628 
      30 H2        -5.8543    0.5494    8.3647 H         1 <0>         0.0629 
      31 H3        -4.5925    1.5948    7.6768 H         1 <0>         0.0642 
      32 H4        -4.6019    0.4566   10.5019 H         1 <0>         0.0966 
      33 H5        -5.0055    2.1302   10.0614 H         1 <0>         0.0967 
      34 H6        -2.3138   -0.2419    9.3020 H         1 <0>         0.4129 
      35 H7        -0.3948    1.6557   10.4432 H         1 <0>         0.1177 
      36 H8        -0.0057    0.1415    9.5985 H         1 <0>         0.1174 
      37 H9         1.0394    2.3654    6.0438 H         1 <0>         0.1170 
      38 H10       -1.9509    2.8904    5.8002 H         1 <0>         0.0784 
      39 H11       -0.8019    3.8462    6.7615 H         1 <0>         0.0805 
      40 H12       -0.6700    3.8178    4.9895 H         1 <0>         0.0845 
      41 H13        0.5000    2.6422    3.4561 H         1 <0>         0.4164 
      42 H14       -0.9164   -0.7081    3.4245 H         1 <0>         0.1427 
      43 H15       -1.1994   -2.1550    1.4183 H         1 <0>         0.1415 
      44 H16        0.9458    2.3967    1.0473 H         1 <0>         0.1512 
      45 H17        1.6804   -1.0825   -3.0106 H         1 <0>         0.0736 
      46 H18        0.1221   -1.4085   -3.7493 H         1 <0>         0.0900 
      47 H19        1.3933    0.1897   -5.1414 H         1 <0>         0.0715 
      48 H20        1.5952    1.2754   -3.7716 H         1 <0>         0.0728 
      49 H21       -0.2453    2.0619   -5.2186 H         1 <0>         0.0706 
      50 H22       -1.0552    0.5059   -5.0917 H         1 <0>         0.0661 
      51 H23       -2.0909    2.1290   -3.5551 H         1 <0>         0.0735 
      52 H24       -0.5355    2.4682   -2.8069 H         1 <0>         0.0762 
      53 H25       -1.8243    0.9244   -1.3883 H         1 <0>         0.0928 
      54 H26       -2.0495   -0.1840   -2.7343 H         1 <0>         0.0829 
@<TRIPOS>BOND
       1        1        2 1        
       2        1       29 1        
       3        1       30 1        
       4        1       31 1        
       5        2        3 1        
       6        2       32 1        
       7        2       33 1        
       8        3        4 2        
       9        3        5 am       
      10        5        6 1        
      11        5       34 1        
      12        6        7 1        
      13        6       35 1        
      14        6       36 1        
      15        7        8 2        
      16        7        9 1        
      17        9       10 1        
      18       10       11 1        
      19       10       12 1        
      20       10       37 1        
      21       11       38 1        
      22       11       39 1        
      23       11       40 1        
      24       12       13 2        
      25       12       14 am       
      26       14       15 1        
      27       14       41 1        
      28       15       20 ar       
      29       15       16 ar       
      30       16       17 ar       
      31       16       42 1        
      32       17       18 ar       
      33       17       43 1        
      34       18       23 1        
      35       18       19 ar       
      36       19       20 ar       
      37       19       21 1        
      38       20       44 1        
      39       21       22 1        
      40       22       28 1        
      41       22       23 1        
      42       22       24 1        
      43       24       25 1        
      44       24       45 1        
      45       24       46 1        
      46       25       26 1        
      47       25       47 1        
      48       25       48 1        
      49       26       27 1        
      50       26       49 1        
      51       26       50 1        
      52       27       28 1        
      53       27       51 1        
      54       27       52 1        
      55       28       53 1        
      56       28       54 1        

