#        1GCZ_R01_S0001_C0000_L00012_S0001_C0023_G0010_E0001.mol2
#        Tue Jun  6 09:58:55 2017
#        Descriptor:     36    22     4     9     8    11
#        Energy - RMSD - RMSD MassCentre:     -75.1046    999.9999    999.9999
#        Receptor:       1  Surface Point:     1  Conformer:     0
#        Ligand:        12  Surface Point:     1  Conformer:    23
#        BUDE Formal Charge: 0
#        ATOM Count: 54
#        Heavy ATOM Count: 28
@<TRIPOS>MOLECULE
ZINC61282011_1GCZ_R01_S0001_C0000_L00012_S0001_C0023_G0010_E0001
 54 56 0 0 0
SMALL
USER_CHARGES
@<TRIPOS>ATOM
       1 C1         3.9169   -3.3106    7.9298 C.3       1 <0>        -0.1394 
       2 C2         3.2289   -2.3498    8.8954 C.3       1 <0>        -0.1416 
       3 C3         1.8665   -1.9850    8.3558 C.2       1 <0>         0.5168 
       4 O1         0.8556   -2.2543    9.0027 O.2       1 <0>        -0.5327 
       5 N1         1.7597   -1.3720    7.1803 N.am      1 <0>        -0.7288 
       6 C4         0.4336   -1.0169    6.6550 C.3       1 <0>         0.1281 
       7 C5        -0.0838    0.2027    7.3798 C.2       1 <0>         0.4647 
       8 O2        -1.0537    0.1201    8.0728 O.2       1 <0>        -0.5000 
       9 O3         0.5499    1.3870    7.2446 O.3       1 <0>        -0.3169 
      10 C6         1.7062    1.4369    6.4049 C.3       1 <0>         0.0729 
      11 C7         2.3078    2.8388    6.4490 C.3       1 <0>        -0.1704 
      12 C8         1.3114    1.1042    4.9858 C.2       1 <0>         0.5166 
      13 O4         1.8349    0.1530    4.4079 O.2       1 <0>        -0.4890 
      14 N2         0.3968    1.8400    4.3605 N.am      1 <0>        -0.6633 
      15 C9         0.0257    1.5293    3.0310 C.ar      1 <0>         0.1513 
      16 C10       -0.9392    2.3181    2.3935 C.ar      1 <0>        -0.1318 
      17 C11       -1.3446    2.0572    1.0792 C.ar      1 <0>        -0.0823 
      18 C12       -0.7348    0.9701    0.4418 C.ar      1 <0>         0.0206 
      19 C13        0.2335    0.1910    1.0862 C.ar      1 <0>         0.0545 
      20 C14        0.6465    0.4397    2.4005 C.ar      1 <0>        -0.1051 
      21 O5         0.6244   -0.8697    0.2720 O.3       1 <0>        -0.2879 
      22 C15        0.1685   -0.3292   -0.9707 C.3       1 <0>         0.2651 
      23 O6        -0.9679    0.5281   -0.8338 O.3       1 <0>        -0.2965 
      24 C16       -0.2162   -1.5121   -2.0059 C.3       1 <0>        -0.1489 
      25 C17       -0.5188   -0.9411   -3.4037 C.3       1 <0>        -0.1151 
      26 C18        0.6765   -0.1212   -3.9240 C.3       1 <0>        -0.1246 
      27 C19        1.0286    1.0189   -2.9505 C.3       1 <0>        -0.1168 
      28 C20        1.3447    0.4847   -1.5412 C.3       1 <0>        -0.1129 
      29 H1         4.0389   -2.8265    6.9631 H         1 <0>         0.0628 
      30 H2         4.8930   -3.5838    8.3250 H         1 <0>         0.0629 
      31 H3         3.3083   -4.2051    7.8141 H         1 <0>         0.0642 
      32 H4         3.8296   -1.4489    9.0010 H         1 <0>         0.0966 
      33 H5         3.1175   -2.8283    9.8662 H         1 <0>         0.0967 
      34 H6         2.5892   -1.1504    6.6483 H         1 <0>         0.4129 
      35 H7         0.5100   -0.8007    5.5916 H         1 <0>         0.1177 
      36 H8        -0.2524   -1.8473    6.8085 H         1 <0>         0.1174 
      37 H9         2.4411    0.7151    6.7549 H         1 <0>         0.1170 
      38 H10        1.5679    3.5611    6.1105 H         1 <0>         0.0784 
      39 H11        2.6045    3.0734    7.4690 H         1 <0>         0.0805 
      40 H12        3.1791    2.8794    5.7986 H         1 <0>         0.0845 
      41 H13       -0.0331    2.6210    4.8351 H         1 <0>         0.4164 
      42 H14       -1.3821    3.1484    2.9235 H         1 <0>         0.1427 
      43 H15       -2.0887    2.6650    0.5859 H         1 <0>         0.1415 
      44 H16        1.3965   -0.1738    2.8776 H         1 <0>         0.1512 
      45 H17        0.5968   -2.2319   -2.0721 H         1 <0>         0.0736 
      46 H18       -1.0896   -2.0382   -1.6265 H         1 <0>         0.0900 
      47 H19       -1.3971   -0.3010   -3.3525 H         1 <0>         0.0715 
      48 H20       -0.7353   -1.7518   -4.0963 H         1 <0>         0.0728 
      49 H21        1.5402   -0.7731   -4.0383 H         1 <0>         0.0706 
      50 H22        0.4404    0.2941   -4.9015 H         1 <0>         0.0661 
      51 H23        0.1890    1.7083   -2.8885 H         1 <0>         0.0735 
      52 H24        1.8857    1.5706   -3.3309 H         1 <0>         0.0762 
      53 H25        2.2253   -0.1528   -1.5839 H         1 <0>         0.0928 
      54 H26        1.5693    1.3184   -0.8791 H         1 <0>         0.0829 
@<TRIPOS>BOND
       1        1        2 1        
       2        1       29 1        
       3        1       30 1        
       4        1       31 1        
       5        2        3 1        
       6        2       32 1        
       7        2       33 1        
       8        3        4 2        
       9        3        5 am       
      10        5        6 1        
      11        5       34 1        
      12        6        7 1        
      13        6       35 1        
      14        6       36 1        
      15        7        8 2        
      16        7        9 1        
      17        9       10 1        
      18       10       11 1        
      19       10       12 1        
      20       10       37 1        
      21       11       38 1        
      22       11       39 1        
      23       11       40 1        
      24       12       13 2        
      25       12       14 am       
      26       14       15 1        
      27       14       41 1        
      28       15       20 ar       
      29       15       16 ar       
      30       16       17 ar       
      31       16       42 1        
      32       17       18 ar       
      33       17       43 1        
      34       18       23 1        
      35       18       19 ar       
      36       19       20 ar       
      37       19       21 1        
      38       20       44 1        
      39       21       22 1        
      40       22       28 1        
      41       22       23 1        
      42       22       24 1        
      43       24       25 1        
      44       24       45 1        
      45       24       46 1        
      46       25       26 1        
      47       25       47 1        
      48       25       48 1        
      49       26       27 1        
      50       26       49 1        
      51       26       50 1        
      52       27       28 1        
      53       27       51 1        
      54       27       52 1        
      55       28       53 1        
      56       28       54 1        

