#        1GCZ_R01_S0001_C0000_L00012_S0001_C0023_G0010_E0001.mol2
#        Tue Jun  6 14:13:44 2017
#        Descriptor:     35    23     8     9     8    13
#        Energy - RMSD - RMSD MassCentre:     -73.8316    999.9999    999.9999
#        Receptor:       1  Surface Point:     1  Conformer:     0
#        Ligand:        12  Surface Point:     1  Conformer:    23
#        BUDE Formal Charge: 0
#        ATOM Count: 54
#        Heavy ATOM Count: 28
@<TRIPOS>MOLECULE
ZINC61282011_1GCZ_R01_S0001_C0000_L00012_S0001_C0023_G0010_E0001
 54 56 0 0 0
SMALL
USER_CHARGES
@<TRIPOS>ATOM
       1 C1         5.8910   -0.9856    9.3448 C.3       1 <0>        -0.1394 
       2 C2         4.8254   -1.0285   10.4363 C.3       1 <0>        -0.1416 
       3 C3         3.5748   -1.6768    9.8923 C.2       1 <0>         0.5168 
       4 O1         3.1440   -2.7092   10.4035 O.2       1 <0>        -0.5327 
       5 N1         2.9387   -1.1308    8.8597 N.am      1 <0>        -0.7288 
       6 C4         1.7212   -1.7618    8.3302 C.3       1 <0>         0.1281 
       7 C5         0.5607   -1.4648    9.2496 C.2       1 <0>         0.4647 
       8 O2         0.0278   -2.3525    9.8462 O.2       1 <0>        -0.5000 
       9 O3         0.1251   -0.1957    9.3976 O.3       1 <0>        -0.3169 
      10 C6         0.7940    0.8330    8.6634 C.3       1 <0>         0.0729 
      11 C7         0.1976    2.1894    9.0282 C.3       1 <0>        -0.1704 
      12 C8         0.6189    0.5889    7.1835 C.2       1 <0>         0.5166 
      13 O4         1.6048    0.4468    6.4620 O.2       1 <0>        -0.4890 
      14 N2        -0.6021    0.5273    6.6600 N.am      1 <0>        -0.6633 
      15 C9        -0.7678    0.2986    5.2735 C.ar      1 <0>         0.1513 
      16 C10       -2.0628    0.2377    4.7454 C.ar      1 <0>        -0.1318 
      17 C11       -2.2863    0.0142    3.3816 C.ar      1 <0>        -0.0823 
      18 C12       -1.1492   -0.1441    2.5803 C.ar      1 <0>         0.0206 
      19 C13        0.1418   -0.0758    3.1174 C.ar      1 <0>         0.0545 
      20 C14        0.3793    0.1453    4.4791 C.ar      1 <0>        -0.1051 
      21 O5         1.0918   -0.3428    2.1341 O.3       1 <0>        -0.2879 
      22 C15        0.2624   -0.0860    0.9981 C.3       1 <0>         0.2651 
      23 O6        -1.1201   -0.3695    1.2293 O.3       1 <0>        -0.2965 
      24 C16        0.7475   -0.9564   -0.2769 C.3       1 <0>        -0.1489 
      25 C17       -0.0149   -0.5393   -1.5482 C.3       1 <0>        -0.1151 
      26 C18        0.1572    0.9680   -1.8128 C.3       1 <0>        -0.1246 
      27 C19       -0.3257    1.7979   -0.6087 C.3       1 <0>        -0.1168 
      28 C20        0.4208    1.4128    0.6820 C.3       1 <0>        -0.1129 
      29 H1         5.5259   -0.3975    8.5055 H         1 <0>         0.0628 
      30 H2         6.7965   -0.5305    9.7406 H         1 <0>         0.0629 
      31 H3         6.1089   -1.9982    9.0116 H         1 <0>         0.0642 
      32 H4         4.5965   -0.0155   10.7605 H         1 <0>         0.0966 
      33 H5         5.1942   -1.6059   11.2815 H         1 <0>         0.0967 
      34 H6         3.2915   -0.2830    8.4392 H         1 <0>         0.4129 
      35 H7         1.5084   -1.3662    7.3394 H         1 <0>         0.1177 
      36 H8         1.8674   -2.8381    8.2678 H         1 <0>         0.1174 
      37 H9         1.8538    0.8243    8.9088 H         1 <0>         0.1170 
      38 H10       -0.8649    2.1927    8.7938 H         1 <0>         0.0784 
      39 H11        0.3355    2.3712   10.0919 H         1 <0>         0.0805 
      40 H12        0.6977    2.9698    8.4584 H         1 <0>         0.0845 
      41 H13       -1.4116    0.6440    7.2524 H         1 <0>         0.4164 
      42 H14       -2.9111    0.3673    5.4012 H         1 <0>         0.1427 
      43 H15       -3.2847   -0.0326    2.9726 H         1 <0>         0.1415 
      44 H16        1.3842    0.1957    4.8716 H         1 <0>         0.1512 
      45 H17        1.8168   -0.8299   -0.4328 H         1 <0>         0.0736 
      46 H18        0.5689   -2.0094   -0.0697 H         1 <0>         0.0900 
      47 H19       -1.0728   -0.7632   -1.4274 H         1 <0>         0.0715 
      48 H20        0.3515   -1.1047   -2.4024 H         1 <0>         0.0728 
      49 H21        1.2071    1.1852   -1.9985 H         1 <0>         0.0706 
      50 H22       -0.4043    1.2526   -2.7001 H         1 <0>         0.0661 
      51 H23       -1.3914    1.6327   -0.4649 H         1 <0>         0.0735 
      52 H24       -0.1767    2.8561   -0.8129 H         1 <0>         0.0762 
      53 H25        1.4791    1.6385    0.5702 H         1 <0>         0.0928 
      54 H26        0.0401    2.0049    1.5117 H         1 <0>         0.0829 
@<TRIPOS>BOND
       1        1        2 1        
       2        1       29 1        
       3        1       30 1        
       4        1       31 1        
       5        2        3 1        
       6        2       32 1        
       7        2       33 1        
       8        3        4 2        
       9        3        5 am       
      10        5        6 1        
      11        5       34 1        
      12        6        7 1        
      13        6       35 1        
      14        6       36 1        
      15        7        8 2        
      16        7        9 1        
      17        9       10 1        
      18       10       11 1        
      19       10       12 1        
      20       10       37 1        
      21       11       38 1        
      22       11       39 1        
      23       11       40 1        
      24       12       13 2        
      25       12       14 am       
      26       14       15 1        
      27       14       41 1        
      28       15       20 ar       
      29       15       16 ar       
      30       16       17 ar       
      31       16       42 1        
      32       17       18 ar       
      33       17       43 1        
      34       18       23 1        
      35       18       19 ar       
      36       19       20 ar       
      37       19       21 1        
      38       20       44 1        
      39       21       22 1        
      40       22       28 1        
      41       22       23 1        
      42       22       24 1        
      43       24       25 1        
      44       24       45 1        
      45       24       46 1        
      46       25       26 1        
      47       25       47 1        
      48       25       48 1        
      49       26       27 1        
      50       26       49 1        
      51       26       50 1        
      52       27       28 1        
      53       27       51 1        
      54       27       52 1        
      55       28       53 1        
      56       28       54 1        

