#        1GCZ_R01_S0001_C0000_L00012_S0001_C0024_G0010_E0001.mol2
#        Tue Jun  6 09:58:56 2017
#        Descriptor:     13    32    21    10     7    11
#        Energy - RMSD - RMSD MassCentre:     -69.6177    999.9999    999.9999
#        Receptor:       1  Surface Point:     1  Conformer:     0
#        Ligand:        12  Surface Point:     1  Conformer:    24
#        BUDE Formal Charge: 0
#        ATOM Count: 54
#        Heavy ATOM Count: 28
@<TRIPOS>MOLECULE
ZINC61282011_1GCZ_R01_S0001_C0000_L00012_S0001_C0024_G0010_E0001
 54 56 0 0 0
SMALL
USER_CHARGES
@<TRIPOS>ATOM
       1 C1         5.9628   -6.1406    6.9732 C.3       1 <0>        -0.1394 
       2 C2         4.8639   -5.2292    6.4345 C.3       1 <0>        -0.1416 
       3 C3         5.4894   -4.0727    5.6919 C.2       1 <0>         0.5168 
       4 O1         6.7132   -3.9876    5.6029 O.2       1 <0>        -0.5327 
       5 N1         4.7166   -3.1454    5.1335 N.am      1 <0>        -0.7288 
       6 C4         3.2540   -3.2471    5.2397 C.3       1 <0>         0.1281 
       7 C5         2.8204   -2.8278    6.6241 C.2       1 <0>         0.4647 
       8 O2         2.3187   -3.6239    7.3605 O.2       1 <0>        -0.5000 
       9 O3         2.9997   -1.5528    7.0299 O.3       1 <0>        -0.3169 
      10 C6         3.6042   -0.6362    6.1139 C.3       1 <0>         0.0729 
      11 C7         3.7800    0.7198    6.7916 C.3       1 <0>        -0.1704 
      12 C8         2.7185   -0.4805    4.9009 C.2       1 <0>         0.5166 
      13 O4         3.1540   -0.7476    3.7820 O.2       1 <0>        -0.4890 
      14 N2         1.4666   -0.0542    5.0423 N.am      1 <0>        -0.6633 
      15 C9         0.6354    0.0920    3.9067 C.ar      1 <0>         0.1513 
      16 C10       -0.6929    0.4965    4.0851 C.ar      1 <0>        -0.1318 
      17 C11       -1.5601    0.6576    2.9980 C.ar      1 <0>        -0.0823 
      18 C12       -1.0280    0.3935    1.7304 C.ar      1 <0>         0.0206 
      19 C13        0.3034   -0.0049    1.5622 C.ar      1 <0>         0.0545 
      20 C14        1.1807   -0.1715    2.6404 C.ar      1 <0>        -0.1051 
      21 O5         0.5627   -0.2802    0.2213 O.3       1 <0>        -0.2879 
      22 C15       -0.5417    0.4385   -0.3339 C.3       1 <0>         0.2651 
      23 O6        -1.6811    0.4836    0.5292 O.3       1 <0>        -0.2965 
      24 C16       -0.9489   -0.2448   -1.7374 C.3       1 <0>        -0.1489 
      25 C17        0.2269   -0.1919   -2.7304 C.3       1 <0>        -0.1151 
      26 C18        0.6951    1.2604   -2.9381 C.3       1 <0>        -0.1246 
      27 C19        1.1099    1.9026   -1.6011 C.3       1 <0>        -0.1168 
      28 C20       -0.0399    1.8740   -0.5771 C.3       1 <0>        -0.1129 
      29 H1         6.5932   -5.5802    7.6606 H         1 <0>         0.0628 
      30 H2         5.5118   -6.9808    7.4969 H         1 <0>         0.0629 
      31 H3         6.5656   -6.5092    6.1459 H         1 <0>         0.0642 
      32 H4         4.2691   -4.8487    7.2623 H         1 <0>         0.0966 
      33 H5         4.2253   -5.7917    5.7565 H         1 <0>         0.0967 
      34 H6         5.1339   -2.3714    4.6366 H         1 <0>         0.4129 
      35 H7         2.7900   -2.5956    4.5023 H         1 <0>         0.1177 
      36 H8         2.9472   -4.2753    5.0601 H         1 <0>         0.1174 
      37 H9         4.5757   -1.0172    5.8063 H         1 <0>         0.1170 
      38 H10        2.8093    1.0941    7.1098 H         1 <0>         0.0784 
      39 H11        4.4289    0.6102    7.6578 H         1 <0>         0.0805 
      40 H12        4.2270    1.4203    6.0892 H         1 <0>         0.0845 
      41 H13        1.1091    0.1651    5.9610 H         1 <0>         0.4164 
      42 H14       -1.0601    0.6911    5.0819 H         1 <0>         0.1427 
      43 H15       -2.5851    0.9699    3.1339 H         1 <0>         0.1415 
      44 H16        2.2047   -0.4785    2.4872 H         1 <0>         0.1512 
      45 H17       -1.2493   -1.2784   -1.5799 H         1 <0>         0.0736 
      46 H18       -1.8040    0.2856   -2.1509 H         1 <0>         0.0900 
      47 H19       -0.0855   -0.6076   -3.6861 H         1 <0>         0.0715 
      48 H20        1.0538   -0.7930   -2.3582 H         1 <0>         0.0728 
      49 H21        1.5435    1.2732   -3.6191 H         1 <0>         0.0706 
      50 H22       -0.1043    1.8439   -3.3901 H         1 <0>         0.0661 
      51 H23        1.4033    2.9355   -1.7763 H         1 <0>         0.0735 
      52 H24        1.9709    1.3751   -1.1957 H         1 <0>         0.0762 
      53 H25        0.3045    2.2906    0.3669 H         1 <0>         0.0928 
      54 H26       -0.8597    2.4935   -0.9347 H         1 <0>         0.0829 
@<TRIPOS>BOND
       1        1        2 1        
       2        1       29 1        
       3        1       30 1        
       4        1       31 1        
       5        2        3 1        
       6        2       32 1        
       7        2       33 1        
       8        3        4 2        
       9        3        5 am       
      10        5        6 1        
      11        5       34 1        
      12        6        7 1        
      13        6       35 1        
      14        6       36 1        
      15        7        8 2        
      16        7        9 1        
      17        9       10 1        
      18       10       11 1        
      19       10       12 1        
      20       10       37 1        
      21       11       38 1        
      22       11       39 1        
      23       11       40 1        
      24       12       13 2        
      25       12       14 am       
      26       14       15 1        
      27       14       41 1        
      28       15       20 ar       
      29       15       16 ar       
      30       16       17 ar       
      31       16       42 1        
      32       17       18 ar       
      33       17       43 1        
      34       18       23 1        
      35       18       19 ar       
      36       19       20 ar       
      37       19       21 1        
      38       20       44 1        
      39       21       22 1        
      40       22       28 1        
      41       22       23 1        
      42       22       24 1        
      43       24       25 1        
      44       24       45 1        
      45       24       46 1        
      46       25       26 1        
      47       25       47 1        
      48       25       48 1        
      49       26       27 1        
      50       26       49 1        
      51       26       50 1        
      52       27       28 1        
      53       27       51 1        
      54       27       52 1        
      55       28       53 1        
      56       28       54 1        

