#        1GCZ_R01_S0001_C0000_L00012_S0001_C0024_G0010_E0001.mol2
#        Tue Jun  6 14:13:46 2017
#        Descriptor:     30    21     7    11     9    12
#        Energy - RMSD - RMSD MassCentre:     -77.0104    999.9999    999.9999
#        Receptor:       1  Surface Point:     1  Conformer:     0
#        Ligand:        12  Surface Point:     1  Conformer:    24
#        BUDE Formal Charge: 0
#        ATOM Count: 54
#        Heavy ATOM Count: 28
@<TRIPOS>MOLECULE
ZINC61282011_1GCZ_R01_S0001_C0000_L00012_S0001_C0024_G0010_E0001
 54 56 0 0 0
SMALL
USER_CHARGES
@<TRIPOS>ATOM
       1 C1        10.0834    0.6736    6.7630 C.3       1 <0>        -0.1394 
       2 C2         8.5901    0.4733    6.5211 C.3       1 <0>        -0.1416 
       3 C3         8.0518    1.6316    5.7159 C.2       1 <0>         0.5168 
       4 O1         8.8031    2.5405    5.3661 O.2       1 <0>        -0.5327 
       5 N1         6.7642    1.6693    5.3845 N.am      1 <0>        -0.7288 
       6 C4         5.8663    0.5831    5.8024 C.3       1 <0>         0.1281 
       7 C5         5.5323    0.7425    7.2664 C.2       1 <0>         0.4647 
       8 O2         5.8967   -0.0772    8.0558 O.2       1 <0>        -0.5000 
       9 O3         4.8215    1.8117    7.6835 O.3       1 <0>        -0.3169 
      10 C6         4.4073    2.7660    6.7024 C.3       1 <0>         0.0729 
      11 C7         3.6872    3.9229    7.3892 C.3       1 <0>        -0.1704 
      12 C8         3.4707    2.1031    5.7208 C.2       1 <0>         0.5166 
      13 O4         3.7473    2.0842    4.5224 O.2       1 <0>        -0.4890 
      14 N2         2.3462    1.5392    6.1522 N.am      1 <0>        -0.6633 
      15 C9         1.4676    0.9175    5.2336 C.ar      1 <0>         0.1513 
      16 C10        0.3137    0.2892    5.7167 C.ar      1 <0>        -0.1318 
      17 C11       -0.5907   -0.3414    4.8540 C.ar      1 <0>        -0.0823 
      18 C12       -0.2787   -0.3086    3.4897 C.ar      1 <0>         0.0206 
      19 C13        0.8749    0.3275    3.0162 C.ar      1 <0>         0.0545 
      20 C14        1.7884    0.9602    3.8678 C.ar      1 <0>        -0.1051 
      21 O5         0.9966    0.1518    1.6395 O.3       1 <0>        -0.2879 
      22 C15       -0.3663   -0.1894    1.3736 C.3       1 <0>         0.2651 
      23 O6        -1.0088   -0.8524    2.4657 O.3       1 <0>        -0.2965 
      24 C16       -0.4169   -1.1271    0.0619 C.3       1 <0>        -0.1489 
      25 C17        0.1563   -0.3859   -1.1601 C.3       1 <0>        -0.1151 
      26 C18       -0.5996    0.9351   -1.3955 C.3       1 <0>        -0.1246 
      27 C19       -0.5269    1.8411   -0.1523 C.3       1 <0>        -0.1168 
      28 C20       -1.0940    1.1390    1.0955 C.3       1 <0>        -0.1129 
      29 H1        10.2393    1.5940    7.3221 H         1 <0>         0.0628 
      30 H2        10.4740   -0.1675    7.3319 H         1 <0>         0.0629 
      31 H3        10.5997    0.7372    5.8075 H         1 <0>         0.0642 
      32 H4         8.0709    0.4237    7.4760 H         1 <0>         0.0966 
      33 H5         8.4320   -0.4532    5.9729 H         1 <0>         0.0967 
      34 H6         6.4031    2.4436    4.8460 H         1 <0>         0.4129 
      35 H7         4.9509    0.6225    5.2159 H         1 <0>         0.1177 
      36 H8         6.3573   -0.3750    5.6453 H         1 <0>         0.1174 
      37 H9         5.2789    3.1440    6.1724 H         1 <0>         0.1170 
      38 H10        2.8228    3.5420    7.9291 H         1 <0>         0.0784 
      39 H11        4.3660    4.4089    8.0867 H         1 <0>         0.0805 
      40 H12        3.3601    4.6413    6.6403 H         1 <0>         0.0845 
      41 H13        2.1191    1.5546    7.1361 H         1 <0>         0.4164 
      42 H14        0.1123    0.2901    6.7777 H         1 <0>         0.1427 
      43 H15       -1.4816   -0.8264    5.2251 H         1 <0>         0.1415 
      44 H16        2.6716    1.4461    3.4803 H         1 <0>         0.1512 
      45 H17        0.1449   -2.0430    0.2317 H         1 <0>         0.0736 
      46 H18       -1.4506   -1.4075   -0.1293 H         1 <0>         0.0900 
      47 H19        0.0626   -1.0144   -2.0432 H         1 <0>         0.0715 
      48 H20        1.2134   -0.1799   -1.0064 H         1 <0>         0.0728 
      49 H21       -0.1613    1.4565   -2.2439 H         1 <0>         0.0706 
      50 H22       -1.6404    0.7262   -1.6339 H         1 <0>         0.0661 
      51 H23       -1.0963    2.7494   -0.3379 H         1 <0>         0.0735 
      52 H24        0.5072    2.1268    0.0298 H         1 <0>         0.0762 
      53 H25       -0.9815    1.7892    1.9603 H         1 <0>         0.0928 
      54 H26       -2.1567    0.9528    0.9553 H         1 <0>         0.0829 
@<TRIPOS>BOND
       1        1        2 1        
       2        1       29 1        
       3        1       30 1        
       4        1       31 1        
       5        2        3 1        
       6        2       32 1        
       7        2       33 1        
       8        3        4 2        
       9        3        5 am       
      10        5        6 1        
      11        5       34 1        
      12        6        7 1        
      13        6       35 1        
      14        6       36 1        
      15        7        8 2        
      16        7        9 1        
      17        9       10 1        
      18       10       11 1        
      19       10       12 1        
      20       10       37 1        
      21       11       38 1        
      22       11       39 1        
      23       11       40 1        
      24       12       13 2        
      25       12       14 am       
      26       14       15 1        
      27       14       41 1        
      28       15       20 ar       
      29       15       16 ar       
      30       16       17 ar       
      31       16       42 1        
      32       17       18 ar       
      33       17       43 1        
      34       18       23 1        
      35       18       19 ar       
      36       19       20 ar       
      37       19       21 1        
      38       20       44 1        
      39       21       22 1        
      40       22       28 1        
      41       22       23 1        
      42       22       24 1        
      43       24       25 1        
      44       24       45 1        
      45       24       46 1        
      46       25       26 1        
      47       25       47 1        
      48       25       48 1        
      49       26       27 1        
      50       26       49 1        
      51       26       50 1        
      52       27       28 1        
      53       27       51 1        
      54       27       52 1        
      55       28       53 1        
      56       28       54 1        

