#        1GCZ_R01_S0001_C0000_L00012_S0001_C0025_G0010_E0001.mol2
#        Tue Jun  6 09:58:57 2017
#        Descriptor:     34    22     5     9     8    11
#        Energy - RMSD - RMSD MassCentre:     -72.8751    999.9999    999.9999
#        Receptor:       1  Surface Point:     1  Conformer:     0
#        Ligand:        12  Surface Point:     1  Conformer:    25
#        BUDE Formal Charge: 0
#        ATOM Count: 54
#        Heavy ATOM Count: 28
@<TRIPOS>MOLECULE
ZINC61282011_1GCZ_R01_S0001_C0000_L00012_S0001_C0025_G0010_E0001
 54 56 0 0 0
SMALL
USER_CHARGES
@<TRIPOS>ATOM
       1 C1         4.0431   -3.6498    9.2698 C.3       1 <0>        -0.1394 
       2 C2         3.1435   -2.9913    8.2279 C.3       1 <0>        -0.1416 
       3 C3         3.9710   -2.0796    7.3538 C.2       1 <0>         0.5168 
       4 O1         5.1800   -1.9681    7.5507 O.2       1 <0>        -0.5327 
       5 N1         3.3923   -1.3966    6.3702 N.am      1 <0>        -0.7288 
       6 C4         1.9474   -1.5299    6.1347 C.3       1 <0>         0.1281 
       7 C5         1.1935   -0.7393    7.1772 C.2       1 <0>         0.4647 
       8 O2         0.4985   -1.3033    7.9688 O.2       1 <0>        -0.5000 
       9 O3         1.3047    0.6056    7.2148 O.3       1 <0>        -0.3169 
      10 C6         2.1480    1.2361    6.2473 C.3       1 <0>         0.0729 
      11 C7         2.1901    2.7388    6.5104 C.3       1 <0>        -0.1704 
      12 C8         1.6003    0.9837    4.8629 C.2       1 <0>         0.5166 
      13 O4         2.2942    0.4170    4.0201 O.2       1 <0>        -0.4890 
      14 N2         0.3669    1.3742    4.5547 N.am      1 <0>        -0.6633 
      15 C9        -0.1477    1.1382    3.2579 C.ar      1 <0>         0.1513 
      16 C10       -1.4487    1.5582    2.9570 C.ar      1 <0>        -0.1318 
      17 C11       -2.0090    1.3513    1.6909 C.ar      1 <0>        -0.0823 
      18 C12       -1.2005    0.7049    0.7483 C.ar      1 <0>         0.0206 
      19 C13        0.1015    0.2939    1.0576 C.ar      1 <0>         0.0545 
      20 C14        0.6732    0.4929    2.3198 C.ar      1 <0>        -0.1051 
      21 O5         0.6634   -0.3905   -0.0179 O.3       1 <0>        -0.2879 
      22 C15       -0.2196    0.0969   -1.0314 C.3       1 <0>         0.2651 
      23 O6        -1.5305    0.3975   -0.5454 O.3       1 <0>        -0.2965 
      24 C16       -0.3632   -0.9765   -2.2339 C.3       1 <0>        -0.1489 
      25 C17       -1.1527   -0.3775   -3.4127 C.3       1 <0>        -0.1151 
      26 C18       -0.4850    0.9187   -3.9085 C.3       1 <0>        -0.1246 
      27 C19       -0.3688    1.9493   -2.7701 C.3       1 <0>        -0.1168 
      28 C20        0.4220    1.3874   -1.5742 C.3       1 <0>        -0.1129 
      29 H1         4.4979   -2.8821    9.8925 H         1 <0>         0.0628 
      30 H2         3.4492   -4.3168    9.8912 H         1 <0>         0.0629 
      31 H3         4.8225   -4.2190    8.7675 H         1 <0>         0.0642 
      32 H4         2.3721   -2.4103    8.7291 H         1 <0>         0.0966 
      33 H5         2.6783   -3.7587    7.6125 H         1 <0>         0.0967 
      34 H6         3.9448   -0.7865    5.7849 H         1 <0>         0.4129 
      35 H7         1.7039   -1.1488    5.1453 H         1 <0>         0.1177 
      36 H8         1.6637   -2.5781    6.2001 H         1 <0>         0.1174 
      37 H9         3.1532    0.8264    6.3192 H         1 <0>         0.1170 
      38 H10        1.1827    3.1452    6.4504 H         1 <0>         0.0784 
      39 H11        2.5971    2.9213    7.5026 H         1 <0>         0.0805 
      40 H12        2.8206    3.2192    5.7651 H         1 <0>         0.0845 
      41 H13       -0.2028    1.8394    5.2467 H         1 <0>         0.4164 
      42 H14       -2.0359    2.0549    3.7152 H         1 <0>         0.1427 
      43 H15       -3.0125    1.6751    1.4570 H         1 <0>         0.1415 
      44 H16        1.6805    0.1687    2.5360 H         1 <0>         0.1512 
      45 H17        0.6205   -1.2924   -2.5745 H         1 <0>         0.0736 
      46 H18       -0.8779   -1.8575   -1.8563 H         1 <0>         0.0900 
      47 H19       -2.1696   -0.1576   -3.0947 H         1 <0>         0.0715 
      48 H20       -1.2048   -1.0967   -4.2274 H         1 <0>         0.0728 
      49 H21        0.5092    0.6915   -4.2878 H         1 <0>         0.0706 
      50 H22       -1.0650    1.3423   -4.7257 H         1 <0>         0.0661 
      51 H23       -1.3663    2.2277   -2.4365 H         1 <0>         0.0735 
      52 H24        0.1217    2.8470   -3.1407 H         1 <0>         0.0762 
      53 H25        1.4420    1.1695   -1.8838 H         1 <0>         0.0928 
      54 H26        0.4664    2.1350   -0.7850 H         1 <0>         0.0829 
@<TRIPOS>BOND
       1        1        2 1        
       2        1       29 1        
       3        1       30 1        
       4        1       31 1        
       5        2        3 1        
       6        2       32 1        
       7        2       33 1        
       8        3        4 2        
       9        3        5 am       
      10        5        6 1        
      11        5       34 1        
      12        6        7 1        
      13        6       35 1        
      14        6       36 1        
      15        7        8 2        
      16        7        9 1        
      17        9       10 1        
      18       10       11 1        
      19       10       12 1        
      20       10       37 1        
      21       11       38 1        
      22       11       39 1        
      23       11       40 1        
      24       12       13 2        
      25       12       14 am       
      26       14       15 1        
      27       14       41 1        
      28       15       20 ar       
      29       15       16 ar       
      30       16       17 ar       
      31       16       42 1        
      32       17       18 ar       
      33       17       43 1        
      34       18       23 1        
      35       18       19 ar       
      36       19       20 ar       
      37       19       21 1        
      38       20       44 1        
      39       21       22 1        
      40       22       28 1        
      41       22       23 1        
      42       22       24 1        
      43       24       25 1        
      44       24       45 1        
      45       24       46 1        
      46       25       26 1        
      47       25       47 1        
      48       25       48 1        
      49       26       27 1        
      50       26       49 1        
      51       26       50 1        
      52       27       28 1        
      53       27       51 1        
      54       27       52 1        
      55       28       53 1        
      56       28       54 1        

