#        1GCZ_R01_S0001_C0000_L00012_S0001_C0025_G0010_E0001.mol2
#        Tue Jun  6 14:13:48 2017
#        Descriptor:     34    22     4     9     8    11
#        Energy - RMSD - RMSD MassCentre:     -69.7088    999.9999    999.9999
#        Receptor:       1  Surface Point:     1  Conformer:     0
#        Ligand:        12  Surface Point:     1  Conformer:    25
#        BUDE Formal Charge: 0
#        ATOM Count: 54
#        Heavy ATOM Count: 28
@<TRIPOS>MOLECULE
ZINC61282011_1GCZ_R01_S0001_C0000_L00012_S0001_C0025_G0010_E0001
 54 56 0 0 0
SMALL
USER_CHARGES
@<TRIPOS>ATOM
       1 C1         3.3631   -4.1228    9.2698 C.3       1 <0>        -0.1394 
       2 C2         2.5915   -3.3181    8.2279 C.3       1 <0>        -0.1416 
       3 C3         3.5647   -2.5639    7.3538 C.2       1 <0>         0.5168 
       4 O1         4.7747   -2.6641    7.5507 O.2       1 <0>        -0.5327 
       5 N1         3.1134   -1.7908    6.3702 N.am      1 <0>        -0.7288 
       6 C4         1.6674   -1.6711    6.1347 C.3       1 <0>         0.1281 
       7 C5         1.0622   -0.7616    7.1772 C.2       1 <0>         0.4647 
       8 O2         0.2798   -1.1964    7.9688 O.2       1 <0>        -0.5000 
       9 O3         1.4052    0.5435    7.2148 O.3       1 <0>        -0.3169 
      10 C6         2.3452    1.0180    6.2473 C.3       1 <0>         0.0729 
      11 C7         2.6476    2.4905    6.5104 C.3       1 <0>        -0.1704 
      12 C8         1.7620    0.8645    4.8629 C.2       1 <0>         0.5166 
      13 O4         2.3470    0.1859    4.0201 O.2       1 <0>        -0.4890 
      14 N2         0.6152    1.4632    4.5547 N.am      1 <0>        -0.6633 
      15 C9         0.0674    1.3202    3.2579 C.ar      1 <0>         0.1513 
      16 C10       -1.1409    1.9598    2.9570 C.ar      1 <0>        -0.1318 
      17 C11       -1.7287    1.8533    1.6909 C.ar      1 <0>        -0.0823 
      18 C12       -1.0447    1.0763    0.7483 C.ar      1 <0>         0.0206 
      19 C13        0.1662    0.4455    1.0576 C.ar      1 <0>         0.0545 
      20 C14        0.7638    0.5421    2.3198 C.ar      1 <0>        -0.1051 
      21 O5         0.6007   -0.3261   -0.0179 O.3       1 <0>        -0.2879 
      22 C15       -0.1842    0.3072   -1.0314 C.3       1 <0>         0.2651 
      23 O6        -1.4230    0.8309   -0.5454 O.3       1 <0>        -0.2965 
      24 C16       -0.5121   -0.7249   -2.2339 C.3       1 <0>        -0.1489 
      25 C17       -1.1855    0.0020   -3.4127 C.3       1 <0>        -0.1151 
      26 C18       -0.3029    1.1626   -3.9085 C.3       1 <0>        -0.1246 
      27 C19       -0.0095    2.1574   -2.7701 C.3       1 <0>        -0.1168 
      28 C20        0.6717    1.4666   -1.5742 C.3       1 <0>        -0.1129 
      29 H1         3.9443   -3.4457    9.8925 H         1 <0>         0.0628 
      30 H2         2.6624   -4.6765    9.8912 H         1 <0>         0.0629 
      31 H3         4.0318   -4.8186    8.7675 H         1 <0>         0.0642 
      32 H4         1.9327   -2.6119    8.7291 H         1 <0>         0.0966 
      33 H5         2.0001   -3.9930    7.6125 H         1 <0>         0.0967 
      34 H6         3.7635   -1.2859    5.7849 H         1 <0>         0.4129 
      35 H7         1.4937   -1.2536    5.1453 H         1 <0>         0.1177 
      36 H8         1.2060   -2.6542    6.2001 H         1 <0>         0.1174 
      37 H9         3.2640    0.4400    6.3192 H         1 <0>         0.1170 
      38 H10        1.7260    3.0657    6.4504 H         1 <0>         0.0784 
      39 H11        3.0801    2.5996    7.5026 H         1 <0>         0.0805 
      40 H12        3.3520    2.8541    5.7651 H         1 <0>         0.0845 
      41 H13        0.1349    2.0204    5.2467 H         1 <0>         0.4164 
      42 H14       -1.6329    2.5508    3.7152 H         1 <0>         0.1427 
      43 H15       -2.6606    2.3464    1.4570 H         1 <0>         0.1415 
      44 H16        1.6994    0.0480    2.5360 H         1 <0>         0.1512 
      45 H17        0.4018   -1.2069   -2.5745 H         1 <0>         0.0736 
      46 H18       -1.1719   -1.5031   -1.8563 H         1 <0>         0.0900 
      47 H19       -2.1488    0.3952   -3.0947 H         1 <0>         0.0715 
      48 H20       -1.3618   -0.6971   -4.2274 H         1 <0>         0.0728 
      49 H21        0.6367    0.7662   -4.2878 H         1 <0>         0.0706 
      50 H22       -0.8006    1.6805   -4.7257 H         1 <0>         0.0661 
      51 H23       -0.9435    2.6048   -2.4365 H         1 <0>         0.0735 
      52 H24        0.6294    2.9563   -3.1407 H         1 <0>         0.0762 
      53 H25        1.6383    1.0750   -1.8838 H         1 <0>         0.0928 
      54 H26        0.8452    2.1953   -0.7850 H         1 <0>         0.0829 
@<TRIPOS>BOND
       1        1        2 1        
       2        1       29 1        
       3        1       30 1        
       4        1       31 1        
       5        2        3 1        
       6        2       32 1        
       7        2       33 1        
       8        3        4 2        
       9        3        5 am       
      10        5        6 1        
      11        5       34 1        
      12        6        7 1        
      13        6       35 1        
      14        6       36 1        
      15        7        8 2        
      16        7        9 1        
      17        9       10 1        
      18       10       11 1        
      19       10       12 1        
      20       10       37 1        
      21       11       38 1        
      22       11       39 1        
      23       11       40 1        
      24       12       13 2        
      25       12       14 am       
      26       14       15 1        
      27       14       41 1        
      28       15       20 ar       
      29       15       16 ar       
      30       16       17 ar       
      31       16       42 1        
      32       17       18 ar       
      33       17       43 1        
      34       18       23 1        
      35       18       19 ar       
      36       19       20 ar       
      37       19       21 1        
      38       20       44 1        
      39       21       22 1        
      40       22       28 1        
      41       22       23 1        
      42       22       24 1        
      43       24       25 1        
      44       24       45 1        
      45       24       46 1        
      46       25       26 1        
      47       25       47 1        
      48       25       48 1        
      49       26       27 1        
      50       26       49 1        
      51       26       50 1        
      52       27       28 1        
      53       27       51 1        
      54       27       52 1        
      55       28       53 1        
      56       28       54 1        

