#        1GCZ_R01_S0001_C0000_L00003_S0001_C0019_G0010_E0001.mol2
#        Tue Jun  6 14:04:04 2017
#        Descriptor:     19    19    15    10     9    13
#        Energy - RMSD - RMSD MassCentre:     -67.7612    999.9999    999.9999
#        Receptor:       1  Surface Point:     1  Conformer:     0
#        Ligand:         3  Surface Point:     1  Conformer:    19
#        BUDE Formal Charge: 0
#        ATOM Count: 58
#        Heavy ATOM Count: 30
@<TRIPOS>MOLECULE
ZINC61580633_1GCZ_R01_S0001_C0000_L00003_S0001_C0019_G0010_E0001
 58 59 0 0 0
SMALL
USER_CHARGES
@<TRIPOS>ATOM
       1 C1         5.1985   -2.8824    6.5084 C.3       1 <0>        -0.1532 
       2 C2         6.1893   -1.7227    6.5543 C.3       1 <0>        -0.1224 
       3 C3         5.5503   -0.4830    5.9301 C.3       1 <0>        -0.1198 
       4 C4         6.5425    0.6782    5.9761 C.3       1 <0>         0.0610 
       5 O1         5.9444    1.8384    5.3919 O.3       1 <0>        -0.3878 
       6 C5         4.7682    2.2455    6.0958 C.3       1 <0>         0.0487 
       7 C6         4.1781    3.4854    5.4255 C.3       1 <0>         0.1244 
       8 N1         2.9689    3.9038    6.1491 N.am      1 <0>        -0.7216 
       9 C7         3.0740    4.4627    7.3515 C.2       1 <0>         0.5161 
      10 O2         4.1821    4.6295    7.8583 O.2       1 <0>        -0.5151 
      11 C8         1.8319    4.8925    8.0948 C.3       1 <0>         0.0490 
      12 O3         1.1027    3.7354    8.5120 O.3       1 <0>        -0.3194 
      13 C9         0.6121    2.9175    7.5566 C.2       1 <0>         0.5417 
      14 O4         0.7962    3.1752    6.3784 O.2       1 <0>        -0.5337 
      15 C10       -0.1493    1.7074    7.9386 C.2       1 <0>        -0.2559 
      16 C11       -0.4184    1.2945    9.3341 C.2       1 <0>        -0.0791 
      17 C12       -1.1151    0.1578    9.4030 C.2       1 <0>        -0.2585 
      18 S1        -1.5066   -0.5006    7.8075 S.3       1 <0>         0.3028 
      19 C13       -0.6630    0.8541    7.0421 C.2       1 <0>         0.0893 
      20 N2        -0.5199    1.0404    5.6924 N.am      1 <0>        -0.6099 
      21 C14       -1.0474    0.1662    4.8400 C.2       1 <0>         0.5551 
      22 O5        -1.6641   -0.8100    5.2637 O.2       1 <0>        -0.4939 
      23 C15       -0.8920    0.3689    3.3823 C.ar      1 <0>        -0.1466 
      24 C16       -1.4605   -0.5773    2.5211 C.ar      1 <0>        -0.0772 
      25 C17       -1.2845   -0.4799    1.1357 C.ar      1 <0>        -0.1241 
      26 C18       -0.5273    0.5611    0.5859 C.ar      1 <0>        -0.0446 
      27 C19       -0.0024    1.5381    1.4403 C.ar      1 <0>        -0.1261 
      28 C20       -0.2053    1.4531    2.8229 C.ar      1 <0>        -0.0460 
      29 C21       -0.2972    0.6137   -0.9056 C.3       1 <0>        -0.0928 
      30 C22        0.9784   -0.1497   -1.2499 C.3       1 <0>        -0.1485 
      31 H1         4.9441   -3.1004    5.4733 H         1 <0>         0.0567 
      32 H2         4.2976   -2.6105    7.0543 H         1 <0>         0.0554 
      33 H3         5.6486   -3.7613    6.9649 H         1 <0>         0.0557 
      34 H4         6.4542   -1.5118    7.5883 H         1 <0>         0.0632 
      35 H5         7.0852   -1.9879    5.9967 H         1 <0>         0.0635 
      36 H6         5.2857   -0.6923    4.8958 H         1 <0>         0.0711 
      37 H7         4.6548   -0.2162    6.4875 H         1 <0>         0.0704 
      38 H8         6.8073    0.8891    7.0101 H         1 <0>         0.0498 
      39 H9         7.4382    0.4129    5.4183 H         1 <0>         0.0505 
      40 H10        5.0243    2.4788    7.1272 H         1 <0>         0.0584 
      41 H11        4.0363    1.4406    6.0765 H         1 <0>         0.0702 
      42 H12        3.9206    3.2530    4.3944 H         1 <0>         0.0872 
      43 H13        4.9088    4.2912    5.4449 H         1 <0>         0.0805 
      44 H14        2.0585    3.7673    5.7339 H         1 <0>         0.4058 
      45 H15        2.1148    5.4764    8.9681 H         1 <0>         0.1008 
      46 H16        1.2078    5.4972    7.4402 H         1 <0>         0.0999 
      47 H17       -0.0889    1.8704   10.1862 H         1 <0>         0.1557 
      48 H18       -1.4115   -0.2912   10.3394 H         1 <0>         0.1929 
      49 H19       -0.0136    1.8419    5.3445 H         1 <0>         0.4317 
      50 H20       -2.0376   -1.3946    2.9278 H         1 <0>         0.1287 
      51 H21       -1.7330   -1.2122    0.4809 H         1 <0>         0.1326 
      52 H22        0.5572    2.3595    1.0176 H         1 <0>         0.1342 
      53 H23        0.1719    2.2660    3.4256 H         1 <0>         0.1410 
      54 H24       -0.1963    1.6504   -1.2200 H         1 <0>         0.0777 
      55 H25       -1.1423    0.1593   -1.4185 H         1 <0>         0.0771 
      56 H26        0.8714   -1.1890   -0.9464 H         1 <0>         0.0623 
      57 H27        1.8205    0.2970   -0.7253 H         1 <0>         0.0572 
      58 H28        1.1513   -0.1004   -2.3229 H         1 <0>         0.0578 
@<TRIPOS>BOND
       1        1        2 1        
       2        1       31 1        
       3        1       32 1        
       4        1       33 1        
       5        2        3 1        
       6        2       34 1        
       7        2       35 1        
       8        3        4 1        
       9        3       36 1        
      10        3       37 1        
      11        4        5 1        
      12        4       38 1        
      13        4       39 1        
      14        5        6 1        
      15        6        7 1        
      16        6       40 1        
      17        6       41 1        
      18        7        8 1        
      19        7       42 1        
      20        7       43 1        
      21        8        9 am       
      22        8       44 1        
      23        9       10 2        
      24        9       11 1        
      25       11       12 1        
      26       11       45 1        
      27       11       46 1        
      28       12       13 1        
      29       13       14 2        
      30       13       15 1        
      31       15       19 2        
      32       15       16 1        
      33       16       17 2        
      34       16       47 1        
      35       17       18 1        
      36       17       48 1        
      37       18       19 1        
      38       19       20 1        
      39       20       21 am       
      40       20       49 1        
      41       21       22 2        
      42       21       23 1        
      43       23       28 ar       
      44       23       24 ar       
      45       24       25 ar       
      46       24       50 1        
      47       25       26 ar       
      48       25       51 1        
      49       26       27 ar       
      50       26       29 1        
      51       27       28 ar       
      52       27       52 1        
      53       28       53 1        
      54       29       30 1        
      55       29       54 1        
      56       29       55 1        
      57       30       56 1        
      58       30       57 1        
      59       30       58 1        

