#        1GCZ_R01_S0001_C0000_L00012_S0001_C0026_G0010_E0001.mol2
#        Tue Jun  6 09:58:58 2017
#        Descriptor:      5    23     3     7     8    11
#        Energy - RMSD - RMSD MassCentre:     -73.3960    999.9999    999.9999
#        Receptor:       1  Surface Point:     1  Conformer:     0
#        Ligand:        12  Surface Point:     1  Conformer:    26
#        BUDE Formal Charge: 0
#        ATOM Count: 54
#        Heavy ATOM Count: 28
@<TRIPOS>MOLECULE
ZINC61282011_1GCZ_R01_S0001_C0000_L00012_S0001_C0026_G0010_E0001
 54 56 0 0 0
SMALL
USER_CHARGES
@<TRIPOS>ATOM
       1 C1        -2.0382   -4.5616    6.6198 C.3       1 <0>        -0.1394 
       2 C2        -2.2719   -3.5248    7.7147 C.3       1 <0>        -0.1416 
       3 C3        -1.0167   -2.7084    7.9099 C.2       1 <0>         0.5168 
       4 O1        -0.0196   -2.9393    7.2277 O.2       1 <0>        -0.5327 
       5 N1        -0.9894   -1.7388    8.8198 N.am      1 <0>        -0.7288 
       6 C4         0.2325   -0.9441    9.0097 C.3       1 <0>         0.1281 
       7 C5         0.3610    0.0564    7.8860 C.2       1 <0>         0.4647 
       8 O2         1.2667   -0.0274    7.1110 O.2       1 <0>        -0.5000 
       9 O3        -0.5480    1.0460    7.7567 O.3       1 <0>        -0.3169 
      10 C6        -0.3852    1.9696    6.6772 C.3       1 <0>         0.0729 
      11 C7        -1.4680    3.0419    6.7562 C.3       1 <0>        -0.1704 
      12 C8        -0.5021    1.2333    5.3640 C.2       1 <0>         0.5166 
      13 O4        -0.7487    0.0284    5.3535 O.2       1 <0>        -0.4890 
      14 N2        -0.3385    1.8882    4.2181 N.am      1 <0>        -0.6633 
      15 C9        -0.4479    1.1997    2.9868 C.ar      1 <0>         0.1513 
      16 C10       -0.8684   -0.1355    2.9906 C.ar      1 <0>        -0.1318 
      17 C11       -0.9948   -0.8655    1.8027 C.ar      1 <0>        -0.0823 
      18 C12       -0.6793   -0.1895    0.6180 C.ar      1 <0>         0.0206 
      19 C13       -0.2652    1.1477    0.6246 C.ar      1 <0>         0.0545 
      20 C14       -0.1329    1.8885    1.8051 C.ar      1 <0>        -0.1051 
      21 O5         0.0622    1.5614   -0.6648 O.3       1 <0>        -0.2879 
      22 C15       -0.6431    0.5394   -1.3737 C.3       1 <0>         0.2651 
      23 O6        -0.7289   -0.6940   -0.6549 O.3       1 <0>        -0.2965 
      24 C16        0.0419    0.2175   -2.7471 C.3       1 <0>        -0.1489 
      25 C17       -0.4362    1.1866   -3.8440 C.3       1 <0>        -0.1151 
      26 C18       -1.9293    0.9650   -4.1490 C.3       1 <0>        -0.1246 
      27 C19       -2.6861    0.5009   -2.8906 C.3       1 <0>        -0.1168 
      28 C20       -2.0647    1.0832   -1.6075 C.3       1 <0>        -0.1129 
      29 H1        -1.2288   -5.2254    6.9166 H         1 <0>         0.0628 
      30 H2        -2.9467   -5.1411    6.4700 H         1 <0>         0.0629 
      31 H3        -1.7726   -4.0564    5.6935 H         1 <0>         0.0642 
      32 H4        -2.5238   -4.0295    8.6451 H         1 <0>         0.0966 
      33 H5        -3.0895   -2.8681    7.4247 H         1 <0>         0.0967 
      34 H6        -1.8076   -1.5481    9.3805 H         1 <0>         0.4129 
      35 H7         0.1789   -0.4164    9.9596 H         1 <0>         0.1177 
      36 H8         1.0983   -1.6028    9.0086 H         1 <0>         0.1174 
      37 H9         0.5948    2.4373    6.7438 H         1 <0>         0.1170 
      38 H10       -2.4477    2.5719    6.7020 H         1 <0>         0.0784 
      39 H11       -1.3754    3.5813    7.6965 H         1 <0>         0.0805 
      40 H12       -1.3515    3.7359    5.9263 H         1 <0>         0.0845 
      41 H13       -0.1361    2.8776    4.2267 H         1 <0>         0.4164 
      42 H14       -1.1031   -0.6164    3.9288 H         1 <0>         0.1427 
      43 H15       -1.3195   -1.8955    1.8039 H         1 <0>         0.1415 
      44 H16        0.1869    2.9198    1.7864 H         1 <0>         0.1512 
      45 H17        1.1236    0.2798   -2.6489 H         1 <0>         0.0736 
      46 H18       -0.2033   -0.8049   -3.0270 H         1 <0>         0.0900 
      47 H19        0.1427    1.0234   -4.7506 H         1 <0>         0.0715 
      48 H20       -0.2767    2.2147   -3.5255 H         1 <0>         0.0728 
      49 H21       -2.3674    1.8943   -4.5072 H         1 <0>         0.0706 
      50 H22       -2.0380    0.2204   -4.9348 H         1 <0>         0.0661 
      51 H23       -2.6584   -0.5853   -2.8368 H         1 <0>         0.0735 
      52 H24       -3.7285    0.8052   -2.9601 H         1 <0>         0.0762 
      53 H25       -2.0176    2.1673   -1.6867 H         1 <0>         0.0928 
      54 H26       -2.6957    0.8390   -0.7556 H         1 <0>         0.0829 
@<TRIPOS>BOND
       1        1        2 1        
       2        1       29 1        
       3        1       30 1        
       4        1       31 1        
       5        2        3 1        
       6        2       32 1        
       7        2       33 1        
       8        3        4 2        
       9        3        5 am       
      10        5        6 1        
      11        5       34 1        
      12        6        7 1        
      13        6       35 1        
      14        6       36 1        
      15        7        8 2        
      16        7        9 1        
      17        9       10 1        
      18       10       11 1        
      19       10       12 1        
      20       10       37 1        
      21       11       38 1        
      22       11       39 1        
      23       11       40 1        
      24       12       13 2        
      25       12       14 am       
      26       14       15 1        
      27       14       41 1        
      28       15       20 ar       
      29       15       16 ar       
      30       16       17 ar       
      31       16       42 1        
      32       17       18 ar       
      33       17       43 1        
      34       18       23 1        
      35       18       19 ar       
      36       19       20 ar       
      37       19       21 1        
      38       20       44 1        
      39       21       22 1        
      40       22       28 1        
      41       22       23 1        
      42       22       24 1        
      43       24       25 1        
      44       24       45 1        
      45       24       46 1        
      46       25       26 1        
      47       25       47 1        
      48       25       48 1        
      49       26       27 1        
      50       26       49 1        
      51       26       50 1        
      52       27       28 1        
      53       27       51 1        
      54       27       52 1        
      55       28       53 1        
      56       28       54 1        

