#        1GCZ_R01_S0001_C0000_L00012_S0001_C0026_G0010_E0001.mol2
#        Tue Jun  6 14:13:50 2017
#        Descriptor:     23    31    34     8     9    11
#        Energy - RMSD - RMSD MassCentre:     -77.0786    999.9999    999.9999
#        Receptor:       1  Surface Point:     1  Conformer:     0
#        Ligand:        12  Surface Point:     1  Conformer:    26
#        BUDE Formal Charge: 0
#        ATOM Count: 54
#        Heavy ATOM Count: 28
@<TRIPOS>MOLECULE
ZINC61282011_1GCZ_R01_S0001_C0000_L00012_S0001_C0026_G0010_E0001
 54 56 0 0 0
SMALL
USER_CHARGES
@<TRIPOS>ATOM
       1 C1         4.1617    3.1369    6.6198 C.3       1 <0>        -0.1394 
       2 C2         3.5177    2.2913    7.7147 C.3       1 <0>        -0.1416 
       3 C3         2.0855    2.7281    7.9099 C.2       1 <0>         0.5168 
       4 O1         1.6215    3.6404    7.2277 O.2       1 <0>        -0.5327 
       5 N1         1.3252    2.1258    8.8198 N.am      1 <0>        -0.7288 
       6 C4        -0.0691    2.5510    9.0097 C.3       1 <0>         0.1281 
       7 C5        -0.9180    2.0064    7.8860 C.2       1 <0>         0.4647 
       8 O2        -1.4360    2.7539    7.1110 O.2       1 <0>        -0.5000 
       9 O3        -1.0918    0.6739    7.7567 O.3       1 <0>        -0.3169 
      10 C6        -1.9040    0.2050    6.6772 C.3       1 <0>         0.0729 
      11 C7        -2.0295   -1.3138    6.7562 C.3       1 <0>        -0.1704 
      12 C8        -1.2648    0.5886    5.3640 C.2       1 <0>         0.5166 
      13 O4        -0.1833    1.1743    5.3535 O.2       1 <0>        -0.4890 
      14 N2        -1.8716    0.2930    4.2181 N.am      1 <0>        -0.6633 
      15 C9        -1.2739    0.6518    2.9868 C.ar      1 <0>         0.1513 
      16 C10        0.0192    1.1879    2.9906 C.ar      1 <0>        -0.1318 
      17 C11        0.6597    1.5603    1.8027 C.ar      1 <0>        -0.0823 
      18 C12       -0.0609    1.3675    0.6180 C.ar      1 <0>         0.0206 
      19 C13       -1.3515    0.8251    0.6246 C.ar      1 <0>         0.0545 
      20 C14       -2.0040    0.4504    1.8051 C.ar      1 <0>        -0.1051 
      21 O5        -1.8789    0.8101   -0.6648 O.3       1 <0>        -0.2879 
      22 C15       -0.6426    0.9267   -1.3737 C.3       1 <0>         0.2651 
      23 O6         0.3573    1.6538   -0.6549 O.3       1 <0>        -0.2965 
      24 C16       -0.8363    1.6584   -2.7471 C.3       1 <0>        -0.1489 
      25 C17       -1.2714    0.6692   -3.8440 C.3       1 <0>        -0.1151 
      26 C18       -0.1419   -0.3322   -4.1490 C.3       1 <0>        -0.1246 
      27 C19        0.7001   -0.6137   -2.8906 C.3       1 <0>        -0.1168 
      28 C20       -0.1454   -0.5119   -1.6075 C.3       1 <0>        -0.1129 
      29 H1         4.1499    4.1836    6.9166 H         1 <0>         0.0628 
      30 H2         5.1897    2.8134    6.4700 H         1 <0>         0.0629 
      31 H3         3.6040    3.0156    5.6935 H         1 <0>         0.0642 
      32 H4         4.0662    2.4228    8.6451 H         1 <0>         0.0966 
      33 H5         3.5402    1.2430    7.4247 H         1 <0>         0.0967 
      34 H6         1.7051    1.3765    9.3805 H         1 <0>         0.4129 
      35 H7        -0.4388    2.1707    9.9596 H         1 <0>         0.1177 
      36 H8        -0.1209    3.6377    9.0086 H         1 <0>         0.1174 
      37 H9        -2.8923    0.6550    6.7438 H         1 <0>         0.1170 
      38 H10       -1.0396   -1.7621    6.7020 H         1 <0>         0.0784 
      39 H11       -2.5022   -1.5896    7.6965 H         1 <0>         0.0805 
      40 H12       -2.6359   -1.6707    5.9263 H         1 <0>         0.0845 
      41 H13       -2.7597   -0.1878    4.2267 H         1 <0>         0.4164 
      42 H14        0.5385    1.3173    3.9288 H         1 <0>         0.1427 
      43 H15        1.6574    1.9737    1.8039 H         1 <0>         0.1415 
      44 H16       -2.9997    0.0324    1.7864 H         1 <0>         0.1512 
      45 H17       -1.5794    2.4469   -2.6489 H         1 <0>         0.0736 
      46 H18        0.1045    2.1277   -3.0270 H         1 <0>         0.0900 
      47 H19       -1.5185    1.2175   -4.7506 H         1 <0>         0.0715 
      48 H20       -2.1615    0.1305   -3.5255 H         1 <0>         0.0728 
      49 H21       -0.5721   -1.2651   -4.5072 H         1 <0>         0.0706 
      50 H22        0.4984    0.0632   -4.9348 H         1 <0>         0.0661 
      51 H23        1.5144    0.1058   -2.8368 H         1 <0>         0.0735 
      52 H24        1.1371   -1.6077   -2.9601 H         1 <0>         0.0762 
      53 H25       -1.0061   -1.1726   -1.6867 H         1 <0>         0.0928 
      54 H26        0.4473   -0.8383   -0.7556 H         1 <0>         0.0829 
@<TRIPOS>BOND
       1        1        2 1        
       2        1       29 1        
       3        1       30 1        
       4        1       31 1        
       5        2        3 1        
       6        2       32 1        
       7        2       33 1        
       8        3        4 2        
       9        3        5 am       
      10        5        6 1        
      11        5       34 1        
      12        6        7 1        
      13        6       35 1        
      14        6       36 1        
      15        7        8 2        
      16        7        9 1        
      17        9       10 1        
      18       10       11 1        
      19       10       12 1        
      20       10       37 1        
      21       11       38 1        
      22       11       39 1        
      23       11       40 1        
      24       12       13 2        
      25       12       14 am       
      26       14       15 1        
      27       14       41 1        
      28       15       20 ar       
      29       15       16 ar       
      30       16       17 ar       
      31       16       42 1        
      32       17       18 ar       
      33       17       43 1        
      34       18       23 1        
      35       18       19 ar       
      36       19       20 ar       
      37       19       21 1        
      38       20       44 1        
      39       21       22 1        
      40       22       28 1        
      41       22       23 1        
      42       22       24 1        
      43       24       25 1        
      44       24       45 1        
      45       24       46 1        
      46       25       26 1        
      47       25       47 1        
      48       25       48 1        
      49       26       27 1        
      50       26       49 1        
      51       26       50 1        
      52       27       28 1        
      53       27       51 1        
      54       27       52 1        
      55       28       53 1        
      56       28       54 1        

