#        1GCZ_R01_S0001_C0000_L00012_S0001_C0027_G0010_E0001.mol2
#        Tue Jun  6 09:58:59 2017
#        Descriptor:      4    25     4     7     7    11
#        Energy - RMSD - RMSD MassCentre:     -95.8185    999.9999    999.9999
#        Receptor:       1  Surface Point:     1  Conformer:     0
#        Ligand:        12  Surface Point:     1  Conformer:    27
#        BUDE Formal Charge: 0
#        ATOM Count: 54
#        Heavy ATOM Count: 28
@<TRIPOS>MOLECULE
ZINC61282011_1GCZ_R01_S0001_C0000_L00012_S0001_C0027_G0010_E0001
 54 56 0 0 0
SMALL
USER_CHARGES
@<TRIPOS>ATOM
       1 C1        -1.0920   -6.3163    5.0720 C.3       1 <0>        -0.1394 
       2 C2        -1.8640   -5.7642    6.2669 C.3       1 <0>        -0.1416 
       3 C3        -1.0240   -4.7260    6.9717 C.2       1 <0>         0.5168 
       4 O1         0.0987   -4.4527    6.5503 O.2       1 <0>        -0.5327 
       5 N1        -1.4986   -4.1066    8.0487 N.am      1 <0>        -0.7288 
       6 C4        -0.6808   -3.0960    8.7347 C.3       1 <0>         0.1281 
       7 C5        -0.7002   -1.8111    7.9417 C.2       1 <0>         0.4647 
       8 O2         0.3047   -1.4013    7.4418 O.2       1 <0>        -0.5000 
       9 O3        -1.8538   -1.1249    7.7974 O.3       1 <0>        -0.3169 
      10 C6        -1.8232    0.0863    7.0379 C.3       1 <0>         0.0729 
      11 C7        -3.2034    0.7369    7.0602 C.3       1 <0>        -0.1704 
      12 C8        -1.4375   -0.2247    5.6114 C.2       1 <0>         0.5166 
      13 O4        -1.2487   -1.3895    5.2646 O.2       1 <0>        -0.4890 
      14 N2        -1.3017    0.7616    4.7296 N.am      1 <0>        -0.6633 
      15 C9        -0.9404    0.4718    3.3926 C.ar      1 <0>         0.1513 
      16 C10       -0.8698   -0.8650    2.9830 C.ar      1 <0>        -0.1318 
      17 C11       -0.5178   -1.2104    1.6727 C.ar      1 <0>        -0.0823 
      18 C12       -0.2424   -0.1507    0.8003 C.ar      1 <0>         0.0206 
      19 C13       -0.3215    1.1830    1.2184 C.ar      1 <0>         0.0545 
      20 C14       -0.6703    1.5421    2.5258 C.ar      1 <0>        -0.1051 
      21 O5         0.0743    2.0381    0.1923 O.3       1 <0>        -0.2879 
      22 C15       -0.0944    1.1206   -0.8912 C.3       1 <0>         0.2651 
      23 O6         0.1185   -0.2435   -0.5181 O.3       1 <0>        -0.2965 
      24 C16        0.8833    1.4391   -2.0075 C.3       1 <0>        -0.1489 
      25 C17        0.7808    0.4647   -3.1955 C.3       1 <0>        -0.1151 
      26 C18       -0.6691   -0.0234   -3.3718 C.3       1 <0>        -0.1246 
      27 C19       -1.6718    1.0400   -2.8867 C.3       1 <0>        -0.1168 
      28 C20       -1.5478    1.2878   -1.3719 C.3       1 <0>        -0.1129 
      29 H1        -0.1728   -6.7834    5.4194 H         1 <0>         0.0628 
      30 H2        -1.7023   -7.0547    4.5565 H         1 <0>         0.0629 
      31 H3        -0.8511   -5.5037    4.3898 H         1 <0>         0.0642 
      32 H4        -2.0931   -6.5737    6.9568 H         1 <0>         0.0966 
      33 H5        -2.7895   -5.3078    5.9220 H         1 <0>         0.0967 
      34 H6        -2.4205   -4.3302    8.3956 H         1 <0>         0.4129 
      35 H7        -1.0856   -2.9143    9.7281 H         1 <0>         0.1177 
      36 H8         0.3431   -3.4535    8.8196 H         1 <0>         0.1174 
      37 H9        -1.0934    0.7678    7.4698 H         1 <0>         0.1170 
      38 H10       -3.9344    0.0496    6.6395 H         1 <0>         0.0784 
      39 H11       -3.4757    0.9731    8.0867 H         1 <0>         0.0805 
      40 H12       -3.1825    1.6509    6.4703 H         1 <0>         0.0845 
      41 H13       -1.4567    1.7180    5.0144 H         1 <0>         0.4164 
      42 H14       -1.0927   -1.6503    3.6902 H         1 <0>         0.1427 
      43 H15       -0.4633   -2.2412    1.3551 H         1 <0>         0.1415 
      44 H16       -0.7265    2.5779    2.8261 H         1 <0>         0.1512 
      45 H17        0.7092    2.4563   -2.3517 H         1 <0>         0.0736 
      46 H18        1.8861    1.4026   -1.5871 H         1 <0>         0.0900 
      47 H19        1.4283   -0.3917   -3.0200 H         1 <0>         0.0715 
      48 H20        1.1148    0.9556   -4.1073 H         1 <0>         0.0728 
      49 H21       -0.8541   -0.2362   -4.4227 H         1 <0>         0.0706 
      50 H22       -0.8174   -0.9455   -2.8137 H         1 <0>         0.0661 
      51 H23       -2.6830    0.7063   -3.1100 H         1 <0>         0.0735 
      52 H24       -1.5019    1.9716   -3.4226 H         1 <0>         0.0762 
      53 H25       -1.8804    2.2976   -1.1409 H         1 <0>         0.0928 
      54 H26       -2.1934    0.5945   -0.8369 H         1 <0>         0.0829 
@<TRIPOS>BOND
       1        1        2 1        
       2        1       29 1        
       3        1       30 1        
       4        1       31 1        
       5        2        3 1        
       6        2       32 1        
       7        2       33 1        
       8        3        4 2        
       9        3        5 am       
      10        5        6 1        
      11        5       34 1        
      12        6        7 1        
      13        6       35 1        
      14        6       36 1        
      15        7        8 2        
      16        7        9 1        
      17        9       10 1        
      18       10       11 1        
      19       10       12 1        
      20       10       37 1        
      21       11       38 1        
      22       11       39 1        
      23       11       40 1        
      24       12       13 2        
      25       12       14 am       
      26       14       15 1        
      27       14       41 1        
      28       15       20 ar       
      29       15       16 ar       
      30       16       17 ar       
      31       16       42 1        
      32       17       18 ar       
      33       17       43 1        
      34       18       23 1        
      35       18       19 ar       
      36       19       20 ar       
      37       19       21 1        
      38       20       44 1        
      39       21       22 1        
      40       22       28 1        
      41       22       23 1        
      42       22       24 1        
      43       24       25 1        
      44       24       45 1        
      45       24       46 1        
      46       25       26 1        
      47       25       47 1        
      48       25       48 1        
      49       26       27 1        
      50       26       49 1        
      51       26       50 1        
      52       27       28 1        
      53       27       51 1        
      54       27       52 1        
      55       28       53 1        
      56       28       54 1        

