#        1GCZ_R01_S0001_C0000_L00012_S0001_C0027_G0010_E0001.mol2
#        Tue Jun  6 14:13:52 2017
#        Descriptor:      4    24     4     8     7    11
#        Energy - RMSD - RMSD MassCentre:     -78.9320    999.9999    999.9999
#        Receptor:       1  Surface Point:     1  Conformer:     0
#        Ligand:        12  Surface Point:     1  Conformer:    27
#        BUDE Formal Charge: 0
#        ATOM Count: 54
#        Heavy ATOM Count: 28
@<TRIPOS>MOLECULE
ZINC61282011_1GCZ_R01_S0001_C0000_L00012_S0001_C0027_G0010_E0001
 54 56 0 0 0
SMALL
USER_CHARGES
@<TRIPOS>ATOM
       1 C1         0.2243   -6.0509    5.6462 C.3       1 <0>        -0.1394 
       2 C2        -0.3861   -5.3631    6.8639 C.3       1 <0>        -0.1416 
       3 C3         0.5324   -4.2591    7.3304 C.2       1 <0>         0.5168 
       4 O1         1.5870   -4.0430    6.7356 O.2       1 <0>        -0.5327 
       5 N1         0.2006   -3.5198    8.3851 N.am      1 <0>        -0.7288 
       6 C4         1.0948   -2.4451    8.8391 C.3       1 <0>         0.1281 
       7 C5         0.9605   -1.2567    7.9173 C.2       1 <0>         0.4647 
       8 O2         1.8869   -0.9128    7.2455 O.2       1 <0>        -0.5000 
       9 O3        -0.2071   -0.5822    7.8520 O.3       1 <0>        -0.3169 
      10 C6        -0.2869    0.5364    6.9648 C.3       1 <0>         0.0729 
      11 C7        -1.6567    1.1956    7.0978 C.3       1 <0>        -0.1704 
      12 C8        -0.0920    0.0652    5.5434 C.2       1 <0>         0.5166 
      13 O4         0.0576   -1.1325    5.3067 O.2       1 <0>        -0.4890 
      14 N2        -0.0821    0.9458    4.5468 N.am      1 <0>        -0.6633 
      15 C9         0.1003    0.5059    3.2144 C.ar      1 <0>         0.1513 
      16 C10        0.1257   -0.8687    2.9509 C.ar      1 <0>        -0.1318 
      17 C11        0.3029   -1.3609    1.6522 C.ar      1 <0>        -0.0823 
      18 C12        0.4519   -0.4073    0.6382 C.ar      1 <0>         0.0206 
      19 C13        0.4192    0.9653    0.9115 C.ar      1 <0>         0.0545 
      20 C14        0.2447    1.4707    2.2054 C.ar      1 <0>        -0.1051 
      21 O5         0.6685    1.6976   -0.2471 O.3       1 <0>        -0.2879 
      22 C15        0.3640    0.6661   -1.1893 C.3       1 <0>         0.2651 
      23 O6         0.6349   -0.6493   -0.6979 O.3       1 <0>        -0.2965 
      24 C16        1.1821    0.8508   -2.4542 C.3       1 <0>        -0.1489 
      25 C17        0.9298   -0.2493   -3.5018 C.3       1 <0>        -0.1151 
      26 C18       -0.5269   -0.7433   -3.4280 C.3       1 <0>        -0.1246 
      27 C19       -1.4642    0.3752   -2.9356 C.3       1 <0>        -0.1168 
      28 C20       -1.1416    0.7895   -1.4880 C.3       1 <0>        -0.1129 
      29 H1         1.1850   -6.4833    5.9182 H         1 <0>         0.0628 
      30 H2        -0.4437   -6.8377    5.3021 H         1 <0>         0.0629 
      31 H3         0.3661   -5.3214    4.8516 H         1 <0>         0.0642 
      32 H4        -0.5153   -6.0888    7.6642 H         1 <0>         0.0966 
      33 H5        -1.3526   -4.9412    6.5965 H         1 <0>         0.0967 
      34 H6        -0.6652   -3.6964    8.8743 H         1 <0>         0.4129 
      35 H7         0.8245   -2.1506    9.8510 H         1 <0>         0.1177 
      36 H8         2.1236   -2.7986    8.8264 H         1 <0>         0.1174 
      37 H9         0.4888    1.2564    7.2170 H         1 <0>         0.1170 
      38 H10       -2.4320    0.4712    6.8574 H         1 <0>         0.0784 
      39 H11       -1.7917    1.5471    8.1185 H         1 <0>         0.0805 
      40 H12       -1.7212    2.0379    6.4120 H         1 <0>         0.0845 
      41 H13       -0.2050    1.9292    4.7411 H         1 <0>         0.4164 
      42 H14        0.0048   -1.5685    3.7646 H         1 <0>         0.1427 
      43 H15        0.3223   -2.4211    1.4472 H         1 <0>         0.1415 
      44 H16        0.2211    2.5340    2.3930 H         1 <0>         0.1512 
      45 H17        0.9562    1.8245   -2.8836 H         1 <0>         0.0736 
      46 H18        2.2322    0.8539   -2.1695 H         1 <0>         0.0900 
      47 H19        1.6013   -1.0856   -3.3195 H         1 <0>         0.0715 
      48 H20        1.1359    0.1342   -4.4990 H         1 <0>         0.0728 
      49 H21       -0.8485   -1.0706   -4.4146 H         1 <0>         0.0706 
      50 H22       -0.5928   -1.5962   -2.7558 H         1 <0>         0.0661 
      51 H23       -2.4936    0.0262   -2.9838 H         1 <0>         0.0735 
      52 H24       -1.3740    1.2399   -3.5900 H         1 <0>         0.0762 
      53 H25       -1.4480    1.8212   -1.3290 H         1 <0>         0.0928 
      54 H26       -1.7050    0.1651   -0.7978 H         1 <0>         0.0829 
@<TRIPOS>BOND
       1        1        2 1        
       2        1       29 1        
       3        1       30 1        
       4        1       31 1        
       5        2        3 1        
       6        2       32 1        
       7        2       33 1        
       8        3        4 2        
       9        3        5 am       
      10        5        6 1        
      11        5       34 1        
      12        6        7 1        
      13        6       35 1        
      14        6       36 1        
      15        7        8 2        
      16        7        9 1        
      17        9       10 1        
      18       10       11 1        
      19       10       12 1        
      20       10       37 1        
      21       11       38 1        
      22       11       39 1        
      23       11       40 1        
      24       12       13 2        
      25       12       14 am       
      26       14       15 1        
      27       14       41 1        
      28       15       20 ar       
      29       15       16 ar       
      30       16       17 ar       
      31       16       42 1        
      32       17       18 ar       
      33       17       43 1        
      34       18       23 1        
      35       18       19 ar       
      36       19       20 ar       
      37       19       21 1        
      38       20       44 1        
      39       21       22 1        
      40       22       28 1        
      41       22       23 1        
      42       22       24 1        
      43       24       25 1        
      44       24       45 1        
      45       24       46 1        
      46       25       26 1        
      47       25       47 1        
      48       25       48 1        
      49       26       27 1        
      50       26       49 1        
      51       26       50 1        
      52       27       28 1        
      53       27       51 1        
      54       27       52 1        
      55       28       53 1        
      56       28       54 1        

