#        1GCZ_R01_S0001_C0000_L00012_S0001_C0028_G0010_E0001.mol2
#        Tue Jun  6 09:58:59 2017
#        Descriptor:     36    22     4     9     8    11
#        Energy - RMSD - RMSD MassCentre:     -75.1045    999.9999    999.9999
#        Receptor:       1  Surface Point:     1  Conformer:     0
#        Ligand:        12  Surface Point:     1  Conformer:    28
#        BUDE Formal Charge: 0
#        ATOM Count: 54
#        Heavy ATOM Count: 28
@<TRIPOS>MOLECULE
ZINC61282011_1GCZ_R01_S0001_C0000_L00012_S0001_C0028_G0010_E0001
 54 56 0 0 0
SMALL
USER_CHARGES
@<TRIPOS>ATOM
       1 C1         3.9157   -3.3528    7.9127 C.3       1 <0>        -0.1394 
       2 C2         3.2277   -2.3921    8.8783 C.3       1 <0>        -0.1416 
       3 C3         1.8653   -2.0273    8.3388 C.2       1 <0>         0.5168 
       4 O1         0.8544   -2.2966    8.9856 O.2       1 <0>        -0.5327 
       5 N1         1.7585   -1.4143    7.1633 N.am      1 <0>        -0.7288 
       6 C4         0.4324   -1.0592    6.6380 C.3       1 <0>         0.1281 
       7 C5        -0.0850    0.1604    7.3627 C.2       1 <0>         0.4647 
       8 O2        -1.0549    0.0778    8.0557 O.2       1 <0>        -0.5000 
       9 O3         0.5487    1.3447    7.2275 O.3       1 <0>        -0.3169 
      10 C6         1.7050    1.3947    6.3878 C.3       1 <0>         0.0729 
      11 C7         2.3065    2.7965    6.4319 C.3       1 <0>        -0.1704 
      12 C8         1.3102    1.0619    4.9688 C.2       1 <0>         0.5166 
      13 O4         1.8337    0.1107    4.3909 O.2       1 <0>        -0.4890 
      14 N2         0.3956    1.7977    4.3435 N.am      1 <0>        -0.6633 
      15 C9         0.0245    1.4870    3.0139 C.ar      1 <0>         0.1513 
      16 C10       -0.9745    2.2461    2.3929 C.ar      1 <0>        -0.1318 
      17 C11       -1.3815    1.9837    1.0794 C.ar      1 <0>        -0.0823 
      18 C12       -0.7377    0.9264    0.4257 C.ar      1 <0>         0.0206 
      19 C13        0.2642    0.1771    1.0536 C.ar      1 <0>         0.0545 
      20 C14        0.6796    0.4276    2.3668 C.ar      1 <0>        -0.1051 
      21 O5         0.6869   -0.8602    0.2251 O.3       1 <0>        -0.2879 
      22 C15        0.2003   -0.3243   -1.0081 C.3       1 <0>         0.2651 
      23 O6        -0.9656    0.4890   -0.8527 O.3       1 <0>        -0.2965 
      24 C16       -0.1046   -1.4994   -1.9784 C.3       1 <0>        -0.1489 
      25 C17        0.2071   -1.1473   -3.4447 C.3       1 <0>        -0.1151 
      26 C18       -0.0471    0.3486   -3.7081 C.3       1 <0>        -0.1246 
      27 C19        0.9231    1.2244   -2.8937 C.3       1 <0>        -0.1168 
      28 C20        1.3408    0.5383   -1.5799 C.3       1 <0>        -0.1129 
      29 H1         4.0376   -2.8688    6.9460 H         1 <0>         0.0628 
      30 H2         4.8918   -3.6260    8.3080 H         1 <0>         0.0629 
      31 H3         3.3071   -4.2473    7.7970 H         1 <0>         0.0642 
      32 H4         3.8284   -1.4912    8.9840 H         1 <0>         0.0966 
      33 H5         3.1163   -2.8705    9.8492 H         1 <0>         0.0967 
      34 H6         2.5880   -1.1927    6.6313 H         1 <0>         0.4129 
      35 H7         0.5087   -0.8430    5.5745 H         1 <0>         0.1177 
      36 H8        -0.2536   -1.8896    6.7914 H         1 <0>         0.1174 
      37 H9         2.4399    0.6729    6.7378 H         1 <0>         0.1170 
      38 H10        1.5667    3.5188    6.0934 H         1 <0>         0.0784 
      39 H11        2.6033    3.0311    7.4519 H         1 <0>         0.0805 
      40 H12        3.1779    2.8371    5.7816 H         1 <0>         0.0845 
      41 H13       -0.0343    2.5787    4.8180 H         1 <0>         0.4164 
      42 H14       -1.4429    3.0541    2.9353 H         1 <0>         0.1427 
      43 H15       -2.1518    2.5686    0.5987 H         1 <0>         0.1415 
      44 H16        1.4557   -0.1626    2.8312 H         1 <0>         0.1512 
      45 H17        0.4726   -2.3721   -1.6802 H         1 <0>         0.0736 
      46 H18       -1.1578   -1.7529   -1.8767 H         1 <0>         0.0900 
      47 H19       -0.4252   -1.7394   -4.1029 H         1 <0>         0.0715 
      48 H20        1.2437   -1.3874   -3.6712 H         1 <0>         0.0728 
      49 H21        0.0863    0.5574   -4.7675 H         1 <0>         0.0706 
      50 H22       -1.0726    0.5995   -3.4451 H         1 <0>         0.0661 
      51 H23        0.4407    2.1717   -2.6615 H         1 <0>         0.0735 
      52 H24        1.8081    1.4380   -3.4897 H         1 <0>         0.0762 
      53 H25        2.2050   -0.0970   -1.7611 H         1 <0>         0.0928 
      54 H26        1.6298    1.2936   -0.8521 H         1 <0>         0.0829 
@<TRIPOS>BOND
       1        1        2 1        
       2        1       29 1        
       3        1       30 1        
       4        1       31 1        
       5        2        3 1        
       6        2       32 1        
       7        2       33 1        
       8        3        4 2        
       9        3        5 am       
      10        5        6 1        
      11        5       34 1        
      12        6        7 1        
      13        6       35 1        
      14        6       36 1        
      15        7        8 2        
      16        7        9 1        
      17        9       10 1        
      18       10       11 1        
      19       10       12 1        
      20       10       37 1        
      21       11       38 1        
      22       11       39 1        
      23       11       40 1        
      24       12       13 2        
      25       12       14 am       
      26       14       15 1        
      27       14       41 1        
      28       15       20 ar       
      29       15       16 ar       
      30       16       17 ar       
      31       16       42 1        
      32       17       18 ar       
      33       17       43 1        
      34       18       23 1        
      35       18       19 ar       
      36       19       20 ar       
      37       19       21 1        
      38       20       44 1        
      39       21       22 1        
      40       22       28 1        
      41       22       23 1        
      42       22       24 1        
      43       24       25 1        
      44       24       45 1        
      45       24       46 1        
      46       25       26 1        
      47       25       47 1        
      48       25       48 1        
      49       26       27 1        
      50       26       49 1        
      51       26       50 1        
      52       27       28 1        
      53       27       51 1        
      54       27       52 1        
      55       28       53 1        
      56       28       54 1        

