#        1GCZ_R01_S0001_C0000_L00012_S0001_C0028_G0010_E0001.mol2
#        Tue Jun  6 14:13:54 2017
#        Descriptor:     35    23     8     9     8    13
#        Energy - RMSD - RMSD MassCentre:     -73.0501    999.9999    999.9999
#        Receptor:       1  Surface Point:     1  Conformer:     0
#        Ligand:        12  Surface Point:     1  Conformer:    28
#        BUDE Formal Charge: 0
#        ATOM Count: 54
#        Heavy ATOM Count: 28
@<TRIPOS>MOLECULE
ZINC61282011_1GCZ_R01_S0001_C0000_L00012_S0001_C0028_G0010_E0001
 54 56 0 0 0
SMALL
USER_CHARGES
@<TRIPOS>ATOM
       1 C1         5.9190   -1.0113    9.3196 C.3       1 <0>        -0.1394 
       2 C2         4.8534   -1.0542   10.4111 C.3       1 <0>        -0.1416 
       3 C3         3.6027   -1.7025    9.8671 C.2       1 <0>         0.5168 
       4 O1         3.1719   -2.7349   10.3783 O.2       1 <0>        -0.5327 
       5 N1         2.9666   -1.1565    8.8345 N.am      1 <0>        -0.7288 
       6 C4         1.7492   -1.7875    8.3049 C.3       1 <0>         0.1281 
       7 C5         0.5887   -1.4905    9.2244 C.2       1 <0>         0.4647 
       8 O2         0.0558   -2.3782    9.8210 O.2       1 <0>        -0.5000 
       9 O3         0.1530   -0.2214    9.3724 O.3       1 <0>        -0.3169 
      10 C6         0.8219    0.8073    8.6381 C.3       1 <0>         0.0729 
      11 C7         0.2255    2.1637    9.0030 C.3       1 <0>        -0.1704 
      12 C8         0.6468    0.5632    7.1583 C.2       1 <0>         0.5166 
      13 O4         1.6328    0.4211    6.4367 O.2       1 <0>        -0.4890 
      14 N2        -0.5742    0.5016    6.6347 N.am      1 <0>        -0.6633 
      15 C9        -0.7398    0.2729    5.2483 C.ar      1 <0>         0.1513 
      16 C10       -2.0350    0.1647    4.7280 C.ar      1 <0>        -0.1318 
      17 C11       -2.2584   -0.0613    3.3646 C.ar      1 <0>        -0.0823 
      18 C12       -1.1213   -0.1721    2.5555 C.ar      1 <0>         0.0206 
      19 C13        0.1695   -0.0566    3.0847 C.ar      1 <0>         0.0545 
      20 C14        0.4072    0.1675    4.4460 C.ar      1 <0>        -0.1051 
      21 O5         1.1229   -0.2825    2.0943 O.3       1 <0>        -0.2879 
      22 C15        0.2768   -0.0527    0.9647 C.3       1 <0>         0.2651 
      23 O6        -1.0923   -0.3902    1.2032 O.3       1 <0>        -0.2965 
      24 C16        0.8175   -0.8721   -0.2401 C.3       1 <0>        -0.1489 
      25 C17        0.6263   -0.1408   -1.5818 C.3       1 <0>        -0.1151 
      26 C18       -0.6549    0.7132   -1.5551 C.3       1 <0>        -0.1246 
      27 C19       -0.5404    1.8467   -0.5189 C.3       1 <0>        -0.1168 
      28 C20        0.3754    1.4525    0.6547 C.3       1 <0>        -0.1129 
      29 H1         5.5539   -0.4232    8.4802 H         1 <0>         0.0628 
      30 H2         6.8245   -0.5562    9.7154 H         1 <0>         0.0629 
      31 H3         6.1368   -2.0239    8.9863 H         1 <0>         0.0642 
      32 H4         4.6245   -0.0412   10.7352 H         1 <0>         0.0966 
      33 H5         5.2221   -1.6316   11.2563 H         1 <0>         0.0967 
      34 H6         3.3195   -0.3087    8.4140 H         1 <0>         0.4129 
      35 H7         1.5364   -1.3919    7.3141 H         1 <0>         0.1177 
      36 H8         1.8954   -2.8638    8.2425 H         1 <0>         0.1174 
      37 H9         1.8817    0.7985    8.8836 H         1 <0>         0.1170 
      38 H10       -0.8369    2.1670    8.7686 H         1 <0>         0.0784 
      39 H11        0.3635    2.3455   10.0666 H         1 <0>         0.0805 
      40 H12        0.7257    2.9441    8.4331 H         1 <0>         0.0845 
      41 H13       -1.3837    0.6183    7.2272 H         1 <0>         0.4164 
      42 H14       -2.8834    0.2586    5.3896 H         1 <0>         0.1427 
      43 H15       -3.2569   -0.1447    2.9616 H         1 <0>         0.1415 
      44 H16        1.4119    0.2547    4.8324 H         1 <0>         0.1512 
      45 H17        1.8731   -1.0855   -0.0861 H         1 <0>         0.0736 
      46 H18        0.2906   -1.8237   -0.2613 H         1 <0>         0.0900 
      47 H19        0.5539   -0.8700   -2.3859 H         1 <0>         0.0715 
      48 H20        1.4856    0.4953   -1.7829 H         1 <0>         0.0728 
      49 H21       -0.8229    1.1446   -2.5396 H         1 <0>         0.0706 
      50 H22       -1.5107    0.0856   -1.3154 H         1 <0>         0.0661 
      51 H23       -1.5307    2.0801   -0.1332 H         1 <0>         0.0735 
      52 H24       -0.1502    2.7414   -0.9999 H         1 <0>         0.0762 
      53 H25        1.4069    1.6936    0.4070 H         1 <0>         0.0928 
      54 H26        0.1022    2.0275    1.5371 H         1 <0>         0.0829 
@<TRIPOS>BOND
       1        1        2 1        
       2        1       29 1        
       3        1       30 1        
       4        1       31 1        
       5        2        3 1        
       6        2       32 1        
       7        2       33 1        
       8        3        4 2        
       9        3        5 am       
      10        5        6 1        
      11        5       34 1        
      12        6        7 1        
      13        6       35 1        
      14        6       36 1        
      15        7        8 2        
      16        7        9 1        
      17        9       10 1        
      18       10       11 1        
      19       10       12 1        
      20       10       37 1        
      21       11       38 1        
      22       11       39 1        
      23       11       40 1        
      24       12       13 2        
      25       12       14 am       
      26       14       15 1        
      27       14       41 1        
      28       15       20 ar       
      29       15       16 ar       
      30       16       17 ar       
      31       16       42 1        
      32       17       18 ar       
      33       17       43 1        
      34       18       23 1        
      35       18       19 ar       
      36       19       20 ar       
      37       19       21 1        
      38       20       44 1        
      39       21       22 1        
      40       22       28 1        
      41       22       23 1        
      42       22       24 1        
      43       24       25 1        
      44       24       45 1        
      45       24       46 1        
      46       25       26 1        
      47       25       47 1        
      48       25       48 1        
      49       26       27 1        
      50       26       49 1        
      51       26       50 1        
      52       27       28 1        
      53       27       51 1        
      54       27       52 1        
      55       28       53 1        
      56       28       54 1        

