#        1GCZ_R01_S0001_C0000_L00012_S0001_C0029_G0010_E0001.mol2
#        Tue Jun  6 09:59:00 2017
#        Descriptor:     23    31    19     8     9    11
#        Energy - RMSD - RMSD MassCentre:     -74.4495    999.9999    999.9999
#        Receptor:       1  Surface Point:     1  Conformer:     0
#        Ligand:        12  Surface Point:     1  Conformer:    29
#        BUDE Formal Charge: 0
#        ATOM Count: 54
#        Heavy ATOM Count: 28
@<TRIPOS>MOLECULE
ZINC61282011_1GCZ_R01_S0001_C0000_L00012_S0001_C0029_G0010_E0001
 54 56 0 0 0
SMALL
USER_CHARGES
@<TRIPOS>ATOM
       1 C1        -2.1228    3.3086   10.6317 C.3       1 <0>        -0.1394 
       2 C2        -1.1063    2.2523   10.2076 C.3       1 <0>        -0.1416 
       3 C3        -1.8336    1.0145    9.7397 C.2       1 <0>         0.5168 
       4 O1        -3.0631    0.9832    9.7462 O.2       1 <0>        -0.5327 
       5 N1        -1.1441   -0.0427    9.3202 N.am      1 <0>        -0.7288 
       6 C4         0.3253   -0.0052    9.3124 C.3       1 <0>         0.1281 
       7 C5         0.8007    0.8170    8.1384 C.2       1 <0>         0.4647 
       8 O2         1.3831    1.8439    8.3239 O.2       1 <0>        -0.5000 
       9 O3         0.5675    0.3919    6.8786 O.3       1 <0>        -0.3169 
      10 C6         1.0364    1.2041    5.7991 C.3       1 <0>         0.0729 
      11 C7         0.3857    2.5821    5.8781 C.3       1 <0>        -0.1704 
      12 C8         0.6747    0.5523    4.4859 C.2       1 <0>         0.5166 
      13 O4         0.0309   -0.4957    4.4754 O.2       1 <0>        -0.4890 
      14 N2         1.0524    1.1117    3.3400 N.am      1 <0>        -0.6633 
      15 C9         0.7141    0.5021    2.1087 C.ar      1 <0>         0.1513 
      16 C10       -0.1377   -0.6087    2.1125 C.ar      1 <0>        -0.1318 
      17 C11       -0.5061   -1.2515    0.9245 C.ar      1 <0>        -0.0823 
      18 C12        0.0215   -0.7242   -0.2601 C.ar      1 <0>         0.0206 
      19 C13        0.8680    0.3908   -0.2536 C.ar      1 <0>         0.0545 
      20 C14        1.2457    1.0416    0.9270 C.ar      1 <0>        -0.1051 
      21 O5         1.3172    0.6675   -1.5429 O.3       1 <0>        -0.2879 
      22 C15        0.3049   -0.0517   -2.2518 C.3       1 <0>         0.2651 
      23 O6        -0.1975   -1.1813   -1.5330 O.3       1 <0>        -0.2965 
      24 C16        0.9096   -0.5328   -3.6679 C.3       1 <0>        -0.1489 
      25 C17        1.3429    0.6781   -4.5149 C.3       1 <0>        -0.1151 
      26 C18        0.1630    1.6465   -4.7181 C.3       1 <0>        -0.1246 
      27 C19       -0.3954    2.1268   -3.3657 C.3       1 <0>        -0.1168 
      28 C20       -0.8449    0.9456   -2.4857 C.3       1 <0>        -0.1129 
      29 H1        -2.7251    2.9228   11.4516 H         1 <0>         0.0628 
      30 H2        -1.5990    4.2052   10.9564 H         1 <0>         0.0629 
      31 H3        -2.7676    3.5494    9.7891 H         1 <0>         0.0642 
      32 H4        -0.4699    2.0004   11.0533 H         1 <0>         0.0966 
      33 H5        -0.4950    2.6415    9.3960 H         1 <0>         0.0967 
      34 H6        -1.6295   -0.8712    9.0070 H         1 <0>         0.4129 
      35 H7         0.6823    0.4435   10.2369 H         1 <0>         0.1177 
      36 H8         0.7142   -1.0177    9.2263 H         1 <0>         0.1174 
      37 H9         2.1173    1.3085    5.8657 H         1 <0>         0.1170 
      38 H10       -0.6957    2.4755    5.8239 H         1 <0>         0.0784 
      39 H11        0.6572    3.0573    6.8184 H         1 <0>         0.0805 
      40 H12        0.7324    3.1944    5.0482 H         1 <0>         0.0845 
      41 H13        1.5810    1.9721    3.3486 H         1 <0>         0.4164 
      42 H14       -0.5227   -0.9804    3.0507 H         1 <0>         0.1427 
      43 H15       -1.1635   -2.1084    0.9258 H         1 <0>         0.1415 
      44 H16        1.8990    1.9014    0.9083 H         1 <0>         0.1512 
      45 H17        1.7599   -1.1927   -3.5097 H         1 <0>         0.0736 
      46 H18        0.1488   -1.1005   -4.1996 H         1 <0>         0.0900 
      47 H19        1.6961    0.3351   -5.4852 H         1 <0>         0.0715 
      48 H20        2.1631    1.1986   -4.0250 H         1 <0>         0.0728 
      49 H21        0.4966    2.5079   -5.2931 H         1 <0>         0.0706 
      50 H22       -0.6250    1.1533   -5.2833 H         1 <0>         0.0661 
      51 H23       -1.2463    2.7815   -3.5422 H         1 <0>         0.0735 
      52 H24        0.3651    2.7018   -2.8414 H         1 <0>         0.0762 
      53 H25       -1.1869    1.3198   -1.5232 H         1 <0>         0.0928 
      54 H26       -1.6810    0.4368   -2.9609 H         1 <0>         0.0829 
@<TRIPOS>BOND
       1        1        2 1        
       2        1       29 1        
       3        1       30 1        
       4        1       31 1        
       5        2        3 1        
       6        2       32 1        
       7        2       33 1        
       8        3        4 2        
       9        3        5 am       
      10        5        6 1        
      11        5       34 1        
      12        6        7 1        
      13        6       35 1        
      14        6       36 1        
      15        7        8 2        
      16        7        9 1        
      17        9       10 1        
      18       10       11 1        
      19       10       12 1        
      20       10       37 1        
      21       11       38 1        
      22       11       39 1        
      23       11       40 1        
      24       12       13 2        
      25       12       14 am       
      26       14       15 1        
      27       14       41 1        
      28       15       20 ar       
      29       15       16 ar       
      30       16       17 ar       
      31       16       42 1        
      32       17       18 ar       
      33       17       43 1        
      34       18       23 1        
      35       18       19 ar       
      36       19       20 ar       
      37       19       21 1        
      38       20       44 1        
      39       21       22 1        
      40       22       28 1        
      41       22       23 1        
      42       22       24 1        
      43       24       25 1        
      44       24       45 1        
      45       24       46 1        
      46       25       26 1        
      47       25       47 1        
      48       25       48 1        
      49       26       27 1        
      50       26       49 1        
      51       26       50 1        
      52       27       28 1        
      53       27       51 1        
      54       27       52 1        
      55       28       53 1        
      56       28       54 1        

