#        1GCZ_R01_S0001_C0000_L00012_S0001_C0029_G0010_E0001.mol2
#        Tue Jun  6 14:13:55 2017
#        Descriptor:      6    24     2     7     9    11
#        Energy - RMSD - RMSD MassCentre:     -76.5333    999.9999    999.9999
#        Receptor:       1  Surface Point:     1  Conformer:     0
#        Ligand:        12  Surface Point:     1  Conformer:    29
#        BUDE Formal Charge: 0
#        ATOM Count: 54
#        Heavy ATOM Count: 28
@<TRIPOS>MOLECULE
ZINC61282011_1GCZ_R01_S0001_C0000_L00012_S0001_C0029_G0010_E0001
 54 56 0 0 0
SMALL
USER_CHARGES
@<TRIPOS>ATOM
       1 C1        -4.6171    3.5981    9.9458 C.3       1 <0>        -0.1394 
       2 C2        -3.5110    2.5595    9.7826 C.3       1 <0>        -0.1416 
       3 C3        -4.1022    1.2753    9.2519 C.2       1 <0>         0.5168 
       4 O1        -5.3085    1.2006    9.0241 O.2       1 <0>        -0.5327 
       5 N1        -3.3178    0.2243    9.0305 N.am      1 <0>        -0.7288 
       6 C4        -1.8760    0.3136    9.3027 C.3       1 <0>         0.1281 
       7 C5        -1.2038    1.0945    8.1988 C.2       1 <0>         0.4647 
       8 O2        -0.6947    2.1492    8.4365 O.2       1 <0>        -0.5000 
       9 O3        -1.1780    0.6009    6.9426 O.3       1 <0>        -0.3169 
      10 C6        -0.5301    1.3761    5.9306 C.3       1 <0>         0.0729 
      11 C7        -1.2188    2.7323    5.8083 C.3       1 <0>        -0.1704 
      12 C8        -0.6142    0.6490    4.6098 C.2       1 <0>         0.5166 
      13 O4        -1.2168   -0.4205    4.5329 O.2       1 <0>        -0.4890 
      14 N2        -0.0364    1.1654    3.5289 N.am      1 <0>        -0.6633 
      15 C9        -0.1145    0.4853    2.2906 C.ar      1 <0>         0.1513 
      16 C10       -0.9222   -0.6537    2.1913 C.ar      1 <0>        -0.1318 
      17 C11       -1.0374   -1.3659    0.9915 C.ar      1 <0>        -0.0823 
      18 C12       -0.3042   -0.8780   -0.0968 C.ar      1 <0>         0.0206 
      19 C13        0.4962    0.2653    0.0113 C.ar      1 <0>         0.0545 
      20 C14        0.6217    0.9855    1.2053 C.ar      1 <0>        -0.1051 
      21 O5         1.1790    0.4951   -1.1810 O.3       1 <0>        -0.2879 
      22 C15        0.3417   -0.2930   -2.0308 C.3       1 <0>         0.2651 
      23 O6        -0.2612   -1.4037   -1.3614 O.3       1 <0>        -0.2965 
      24 C16        1.2210   -0.8203   -3.2763 C.3       1 <0>        -0.1489 
      25 C17        1.7788    0.3628   -4.0890 C.3       1 <0>        -0.1151 
      26 C18        0.6360    1.2777   -4.5671 C.3       1 <0>        -0.1246 
      27 C19       -0.1855    1.8026   -3.3749 C.3       1 <0>        -0.1168 
      28 C20       -0.7664    0.6502   -2.5347 C.3       1 <0>        -0.1129 
      29 H1        -5.3565    3.2313   10.6548 H         1 <0>         0.0628 
      30 H2        -4.1891    4.5275   10.3158 H         1 <0>         0.0629 
      31 H3        -5.0927    3.7748    8.9834 H         1 <0>         0.0642 
      32 H4        -3.0440    2.3716   10.7472 H         1 <0>         0.0966 
      33 H5        -2.7646    2.9304    9.0835 H         1 <0>         0.0967 
      34 H6        -3.7121   -0.6352    8.6756 H         1 <0>         0.4129 
      35 H7        -1.7162    0.8190   10.2528 H         1 <0>         0.1177 
      36 H8        -1.4521   -0.6874    9.3479 H         1 <0>         0.1174 
      37 H9         0.5145    1.5219    6.1976 H         1 <0>         0.1170 
      38 H10       -2.2662    2.5847    5.5535 H         1 <0>         0.0784 
      39 H11       -1.1466    3.2617    6.7560 H         1 <0>         0.0805 
      40 H12       -0.7339    3.3156    5.0283 H         1 <0>         0.0845 
      41 H13        0.4584    2.0435    3.5921 H         1 <0>         0.4164 
      42 H14       -1.4717   -0.9930    3.0570 H         1 <0>         0.1427 
      43 H15       -1.6605   -2.2445    0.9132 H         1 <0>         0.1415 
      44 H16        1.2440    1.8661    1.2656 H         1 <0>         0.1512 
      45 H17        2.0412   -1.4411   -2.9223 H         1 <0>         0.0736 
      46 H18        0.5921   -1.4398   -3.9124 H         1 <0>         0.0900 
      47 H19        2.3216   -0.0139   -4.9534 H         1 <0>         0.0715 
      48 H20        2.4751    0.9353   -3.4798 H         1 <0>         0.0728 
      49 H21        1.0524    2.1215   -5.1133 H         1 <0>         0.0706 
      50 H22       -0.0149    0.7299   -5.2452 H         1 <0>         0.0661 
      51 H23       -1.0026    2.4174   -3.7468 H         1 <0>         0.0735 
      52 H24        0.4443    2.4291   -2.7466 H         1 <0>         0.0762 
      53 H25       -1.2975    1.0581   -1.6774 H         1 <0>         0.0928 
      54 H26       -1.4814    0.0895   -3.1331 H         1 <0>         0.0829 
@<TRIPOS>BOND
       1        1        2 1        
       2        1       29 1        
       3        1       30 1        
       4        1       31 1        
       5        2        3 1        
       6        2       32 1        
       7        2       33 1        
       8        3        4 2        
       9        3        5 am       
      10        5        6 1        
      11        5       34 1        
      12        6        7 1        
      13        6       35 1        
      14        6       36 1        
      15        7        8 2        
      16        7        9 1        
      17        9       10 1        
      18       10       11 1        
      19       10       12 1        
      20       10       37 1        
      21       11       38 1        
      22       11       39 1        
      23       11       40 1        
      24       12       13 2        
      25       12       14 am       
      26       14       15 1        
      27       14       41 1        
      28       15       20 ar       
      29       15       16 ar       
      30       16       17 ar       
      31       16       42 1        
      32       17       18 ar       
      33       17       43 1        
      34       18       23 1        
      35       18       19 ar       
      36       19       20 ar       
      37       19       21 1        
      38       20       44 1        
      39       21       22 1        
      40       22       28 1        
      41       22       23 1        
      42       22       24 1        
      43       24       25 1        
      44       24       45 1        
      45       24       46 1        
      46       25       26 1        
      47       25       47 1        
      48       25       48 1        
      49       26       27 1        
      50       26       49 1        
      51       26       50 1        
      52       27       28 1        
      53       27       51 1        
      54       27       52 1        
      55       28       53 1        
      56       28       54 1        

