#        1GCZ_R01_S0001_C0000_L00012_S0001_C0030_G0010_E0001.mol2
#        Tue Jun  6 09:59:01 2017
#        Descriptor:     32    22     8    10     9    12
#        Energy - RMSD - RMSD MassCentre:     -74.6245    999.9999    999.9999
#        Receptor:       1  Surface Point:     1  Conformer:     0
#        Ligand:        12  Surface Point:     1  Conformer:    30
#        BUDE Formal Charge: 0
#        ATOM Count: 54
#        Heavy ATOM Count: 28
@<TRIPOS>MOLECULE
ZINC61282011_1GCZ_R01_S0001_C0000_L00012_S0001_C0030_G0010_E0001
 54 56 0 0 0
SMALL
USER_CHARGES
@<TRIPOS>ATOM
       1 C1         7.9320    2.3358    6.1415 C.3       1 <0>        -0.1394 
       2 C2         7.4235    2.1271    7.5651 C.3       1 <0>        -0.1416 
       3 C3         6.3990    1.0177    7.5752 C.2       1 <0>         0.5168 
       4 O1         6.5961    0.0035    8.2424 O.2       1 <0>        -0.5327 
       5 N1         5.2828    1.1376    6.8620 N.am      1 <0>        -0.7288 
       6 C4         4.2855    0.0578    6.8719 C.3       1 <0>         0.1281 
       7 C5         3.5079    0.1038    8.1655 C.2       1 <0>         0.4647 
       8 O2         3.5941   -0.7957    8.9475 O.2       1 <0>        -0.5000 
       9 O3         2.7150    1.1616    8.4387 O.3       1 <0>        -0.3169 
      10 C6         2.6439    2.2136    7.4728 C.3       1 <0>         0.0729 
      11 C7         1.7579    3.3359    8.0061 C.3       1 <0>        -0.1704 
      12 C8         2.0574    1.6778    6.1886 C.2       1 <0>         0.5166 
      13 O4         2.6982    1.7512    5.1413 O.2       1 <0>        -0.4890 
      14 N2         0.8473    1.1262    6.1899 N.am      1 <0>        -0.6633 
      15 C9         0.2965    0.6235    4.9874 C.ar      1 <0>         0.1513 
      16 C10       -0.9587    0.0045    5.0222 C.ar      1 <0>        -0.1318 
      17 C11       -1.5518   -0.5108    3.8636 C.ar      1 <0>        -0.0823 
      18 C12       -0.8242   -0.3730    2.6755 C.ar      1 <0>         0.0206 
      19 C13        0.4276    0.2529    2.6504 C.ar      1 <0>         0.0545 
      20 C14        1.0329    0.7708    3.8016 C.ar      1 <0>        -0.1051 
      21 O5         0.9760    0.1920    1.3711 O.3       1 <0>        -0.2879 
      22 C15       -0.2372   -0.0677    0.6601 C.3       1 <0>         0.2651 
      23 O6        -1.2000   -0.7953    1.4274 O.3       1 <0>        -0.2965 
      24 C16        0.1554   -0.8491   -0.6312 C.3       1 <0>        -0.1489 
      25 C17       -0.8042   -0.5151   -1.7884 C.3       1 <0>        -0.1151 
      26 C18       -0.6405    0.9539   -2.2206 C.3       1 <0>        -0.1246 
      27 C19       -0.2369    1.8384   -1.0262 C.3       1 <0>        -0.1168 
      28 C20       -0.8233    1.3090    0.2957 C.3       1 <0>        -0.1129 
      29 H1         7.1011    2.6176    5.4980 H         1 <0>         0.0628 
      30 H2         8.6797    3.1260    6.1363 H         1 <0>         0.0629 
      31 H3         8.3768    1.4121    5.7769 H         1 <0>         0.0642 
      32 H4         6.9659    3.0458    7.9256 H         1 <0>         0.0966 
      33 H5         8.2556    1.8573    8.2121 H         1 <0>         0.0967 
      34 H6         5.1199    1.9701    6.3138 H         1 <0>         0.4129 
      35 H7         3.6029    0.1860    6.0345 H         1 <0>         0.1177 
      36 H8         4.7891   -0.9028    6.7861 H         1 <0>         0.1174 
      37 H9         3.6429    2.5994    7.2813 H         1 <0>         0.1170 
      38 H10        0.7626    2.9461    8.2090 H         1 <0>         0.0784 
      39 H11        2.1875    3.7309    8.9242 H         1 <0>         0.0805 
      40 H12        1.6932    4.1294    7.2645 H         1 <0>         0.0845 
      41 H13        0.3211    1.0659    7.0498 H         1 <0>         0.4164 
      42 H14       -1.4850   -0.0780    5.9616 H         1 <0>         0.1427 
      43 H15       -2.5202   -0.9884    3.8886 H         1 <0>         0.1415 
      44 H16        1.9993    1.2511    3.7587 H         1 <0>         0.1512 
      45 H17        1.1761   -0.6074   -0.9200 H         1 <0>         0.0736 
      46 H18        0.1187   -1.9154   -0.4189 H         1 <0>         0.0900 
      47 H19       -1.8307   -0.6822   -1.4690 H         1 <0>         0.0715 
      48 H20       -0.6062   -1.1695   -2.6346 H         1 <0>         0.0728 
      49 H21        0.1255    1.0215   -2.9903 H         1 <0>         0.0706 
      50 H22       -1.5732    1.3188   -2.6454 H         1 <0>         0.0661 
      51 H23       -0.5972    2.8514   -1.1935 H         1 <0>         0.0735 
      52 H24        0.8480    1.8779   -0.9527 H         1 <0>         0.0762 
      53 H25       -0.6004    2.0094    1.0978 H         1 <0>         0.0928 
      54 H26       -1.9053    1.2359    0.2091 H         1 <0>         0.0829 
@<TRIPOS>BOND
       1        1        2 1        
       2        1       29 1        
       3        1       30 1        
       4        1       31 1        
       5        2        3 1        
       6        2       32 1        
       7        2       33 1        
       8        3        4 2        
       9        3        5 am       
      10        5        6 1        
      11        5       34 1        
      12        6        7 1        
      13        6       35 1        
      14        6       36 1        
      15        7        8 2        
      16        7        9 1        
      17        9       10 1        
      18       10       11 1        
      19       10       12 1        
      20       10       37 1        
      21       11       38 1        
      22       11       39 1        
      23       11       40 1        
      24       12       13 2        
      25       12       14 am       
      26       14       15 1        
      27       14       41 1        
      28       15       20 ar       
      29       15       16 ar       
      30       16       17 ar       
      31       16       42 1        
      32       17       18 ar       
      33       17       43 1        
      34       18       23 1        
      35       18       19 ar       
      36       19       20 ar       
      37       19       21 1        
      38       20       44 1        
      39       21       22 1        
      40       22       28 1        
      41       22       23 1        
      42       22       24 1        
      43       24       25 1        
      44       24       45 1        
      45       24       46 1        
      46       25       26 1        
      47       25       47 1        
      48       25       48 1        
      49       26       27 1        
      50       26       49 1        
      51       26       50 1        
      52       27       28 1        
      53       27       51 1        
      54       27       52 1        
      55       28       53 1        
      56       28       54 1        

