#        1GCZ_R01_S0001_C0000_L00012_S0001_C0030_G0010_E0001.mol2
#        Tue Jun  6 14:13:57 2017
#        Descriptor:     14    32    14     7     6    14
#        Energy - RMSD - RMSD MassCentre:     -64.0720    999.9999    999.9999
#        Receptor:       1  Surface Point:     1  Conformer:     0
#        Ligand:        12  Surface Point:     1  Conformer:    30
#        BUDE Formal Charge: 0
#        ATOM Count: 54
#        Heavy ATOM Count: 28
@<TRIPOS>MOLECULE
ZINC61282011_1GCZ_R01_S0001_C0000_L00012_S0001_C0030_G0010_E0001
 54 56 0 0 0
SMALL
USER_CHARGES
@<TRIPOS>ATOM
       1 C1        -2.8092   -7.8051    8.1415 C.3       1 <0>        -0.1394 
       2 C2        -2.7357   -7.2605    9.5651 C.3       1 <0>        -0.1416 
       3 C3        -3.1842   -5.8185    9.5752 C.2       1 <0>         0.5168 
       4 O1        -4.1611   -5.4821   10.2424 O.2       1 <0>        -0.5327 
       5 N1        -2.5222   -4.9118    8.8620 N.am      1 <0>        -0.7288 
       6 C4        -2.9587   -3.5082    8.8719 C.3       1 <0>         0.1281 
       7 C5        -2.5301   -2.8578   10.1655 C.2       1 <0>         0.4647 
       8 O2        -3.3521   -2.4827   10.9475 O.2       1 <0>        -0.5000 
       9 O3        -1.2176   -2.7000   10.4387 O.3       1 <0>        -0.3169 
      10 C6        -0.2709   -3.1644    9.4728 C.3       1 <0>         0.0729 
      11 C7         1.1440   -2.9583   10.0061 C.3       1 <0>        -0.1704 
      12 C8        -0.4417   -2.3886    8.1886 C.2       1 <0>         0.5166 
      13 O4        -0.6985   -2.9803    7.1413 O.2       1 <0>        -0.4890 
      14 N2        -0.3144   -1.0648    8.1899 N.am      1 <0>        -0.6633 
      15 C9        -0.4742   -0.3365    6.9874 C.ar      1 <0>         0.1513 
      16 C10       -0.3828    1.0600    7.0222 C.ar      1 <0>        -0.1318 
      17 C11       -0.5325    1.8313    5.8636 C.ar      1 <0>        -0.0823 
      18 C12       -0.7770    1.1324    4.6755 C.ar      1 <0>         0.0206 
      19 C13       -0.8608   -0.2647    4.6504 C.ar      1 <0>         0.0545 
      20 C14       -0.7150   -1.0479    5.8016 C.ar      1 <0>        -0.1051 
      21 O5        -1.1877   -0.7092    3.3711 O.3       1 <0>        -0.2879 
      22 C15       -0.8061    0.4713    2.6601 C.3       1 <0>         0.2651 
      23 O6        -0.9547    1.6689    3.4274 O.3       1 <0>        -0.2965 
      24 C16       -1.6790    0.5220    1.3688 C.3       1 <0>        -0.1489 
      25 C17       -0.9100    1.1860    0.2116 C.3       1 <0>        -0.1151 
      26 C18        0.2803    0.3097   -0.2206 C.3       1 <0>        -0.1246 
      27 C19        0.8446   -0.4820    0.9738 C.3       1 <0>        -0.1168 
      28 C20        0.6793    0.2905    2.2957 C.3       1 <0>        -0.1129 
      29 H1        -2.1497   -7.2265    7.4980 H         1 <0>         0.0628 
      30 H2        -2.4987   -8.8478    8.1363 H         1 <0>         0.0629 
      31 H3        -3.8315   -7.7285    7.7769 H         1 <0>         0.0642 
      32 H4        -1.7112   -7.3235    9.9256 H         1 <0>         0.0966 
      33 H5        -3.3853   -7.8461   10.2121 H         1 <0>         0.0967 
      34 H6        -1.7199   -5.1870    8.3138 H         1 <0>         0.4129 
      35 H7        -2.5064   -2.9812    8.0345 H         1 <0>         0.1177 
      36 H8        -4.0424   -3.4640    8.7861 H         1 <0>         0.1174 
      37 H9        -0.4364   -4.2225    9.2813 H         1 <0>         0.1170 
      38 H10        1.3041   -1.9014   10.2090 H         1 <0>         0.0784 
      39 H11        1.2713   -3.5278   10.9242 H         1 <0>         0.0805 
      40 H12        1.8635   -3.2990    9.2645 H         1 <0>         0.0845 
      41 H13       -0.1035   -0.5790    9.0498 H         1 <0>         0.4164 
      42 H14       -0.1911    1.5571    7.9616 H         1 <0>         0.1427 
      43 H15       -0.4619    2.9088    5.8886 H         1 <0>         0.1415 
      44 H16       -0.7822   -2.1249    5.7587 H         1 <0>         0.1512 
      45 H17       -1.9801   -0.4827    1.0800 H         1 <0>         0.0736 
      46 H18       -2.5842    1.0870    1.5811 H         1 <0>         0.0900 
      47 H19       -0.5415    2.1586    0.5310 H         1 <0>         0.0715 
      48 H20       -1.5757    1.3418   -0.6346 H         1 <0>         0.0728 
      49 H21       -0.0441   -0.3874   -0.9903 H         1 <0>         0.0706 
      50 H22        1.0627    0.9351   -0.6454 H         1 <0>         0.0661 
      51 H23        1.9019   -0.6765    0.8065 H         1 <0>         0.0735 
      52 H24        0.3363   -1.4413    1.0473 H         1 <0>         0.0762 
      53 H25        1.1744   -0.2527    3.0978 H         1 <0>         0.0928 
      54 H26        1.1569    1.2641    2.2091 H         1 <0>         0.0829 
@<TRIPOS>BOND
       1        1        2 1        
       2        1       29 1        
       3        1       30 1        
       4        1       31 1        
       5        2        3 1        
       6        2       32 1        
       7        2       33 1        
       8        3        4 2        
       9        3        5 am       
      10        5        6 1        
      11        5       34 1        
      12        6        7 1        
      13        6       35 1        
      14        6       36 1        
      15        7        8 2        
      16        7        9 1        
      17        9       10 1        
      18       10       11 1        
      19       10       12 1        
      20       10       37 1        
      21       11       38 1        
      22       11       39 1        
      23       11       40 1        
      24       12       13 2        
      25       12       14 am       
      26       14       15 1        
      27       14       41 1        
      28       15       20 ar       
      29       15       16 ar       
      30       16       17 ar       
      31       16       42 1        
      32       17       18 ar       
      33       17       43 1        
      34       18       23 1        
      35       18       19 ar       
      36       19       20 ar       
      37       19       21 1        
      38       20       44 1        
      39       21       22 1        
      40       22       28 1        
      41       22       23 1        
      42       22       24 1        
      43       24       25 1        
      44       24       45 1        
      45       24       46 1        
      46       25       26 1        
      47       25       47 1        
      48       25       48 1        
      49       26       27 1        
      50       26       49 1        
      51       26       50 1        
      52       27       28 1        
      53       27       51 1        
      54       27       52 1        
      55       28       53 1        
      56       28       54 1        

