#        1GCZ_R01_S0001_C0000_L00003_S0001_C0020_G0010_E0001.mol2
#        Tue Jun  6 09:54:52 2017
#        Descriptor:     25    36    12     8    10    13
#        Energy - RMSD - RMSD MassCentre:     -76.2908    999.9999    999.9999
#        Receptor:       1  Surface Point:     1  Conformer:     0
#        Ligand:         3  Surface Point:     1  Conformer:    20
#        BUDE Formal Charge: 0
#        ATOM Count: 58
#        Heavy ATOM Count: 30
@<TRIPOS>MOLECULE
ZINC61580633_1GCZ_R01_S0001_C0000_L00003_S0001_C0020_G0010_E0001
 58 59 0 0 0
SMALL
USER_CHARGES
@<TRIPOS>ATOM
       1 C1         0.5367   -0.4771   -3.8937 C.3       1 <0>        -0.1532 
       2 C2        -0.9612   -0.2237   -4.0375 C.3       1 <0>        -0.1224 
       3 C3        -1.2345    1.2766   -3.9421 C.3       1 <0>        -0.1198 
       4 C4        -0.7741    1.7917   -2.5792 C.3       1 <0>         0.0610 
       5 O1        -1.5386    1.1603   -1.5489 O.3       1 <0>        -0.3878 
       6 C5        -1.1505    1.6049   -0.2463 C.3       1 <0>         0.0487 
       7 C6        -2.0007    0.8964    0.8071 C.3       1 <0>         0.1244 
       8 N1        -1.6018    1.3535    2.1459 N.am      1 <0>        -0.7216 
       9 C7        -0.4374    0.9679    2.6602 C.2       1 <0>         0.5161 
      10 O2         0.3058    0.2293    2.0163 O.2       1 <0>        -0.5151 
      11 C8        -0.0276    1.4374    4.0357 C.3       1 <0>         0.0490 
      12 O3        -0.8584    0.8139    5.0184 O.3       1 <0>        -0.3194 
      13 C9        -0.6387    1.1143    6.3161 C.2       1 <0>         0.5417 
      14 O4         0.2467    1.8965    6.6206 O.2       1 <0>        -0.5337 
      15 C10       -1.4724    0.4945    7.3700 C.2       1 <0>        -0.2559 
      16 C11       -2.5786   -0.4542    7.1114 C.2       1 <0>        -0.0791 
      17 C12       -3.1788   -0.8543    8.2347 C.2       1 <0>        -0.2585 
      18 S1        -2.4643   -0.1331    9.6845 S.3       1 <0>         0.3028 
      19 C13       -1.3080    0.7484    8.6754 C.2       1 <0>         0.0893 
      20 N2        -0.3466    1.6091    9.1357 N.am      1 <0>        -0.6099 
      21 C14       -0.2207    1.8303   10.4411 C.2       1 <0>         0.5551 
      22 O5        -0.9678    1.2617   11.2357 O.2       1 <0>        -0.4939 
      23 C15        0.8183    2.7603   10.9367 C.ar      1 <0>        -0.1466 
      24 C16        0.9137    2.9662   12.3183 C.ar      1 <0>        -0.0772 
      25 C17        1.8267    3.8890   12.8422 C.ar      1 <0>        -0.1241 
      26 C18        2.6551    4.6314   11.9925 C.ar      1 <0>        -0.0446 
      27 C19        2.5994    4.3893   10.6148 C.ar      1 <0>        -0.1261 
      28 C20        1.7055    3.4444   10.0972 C.ar      1 <0>        -0.0460 
      29 C21        3.5892    5.6664   12.5729 C.3       1 <0>        -0.0928 
      30 C22        2.8779    7.0151   12.6335 C.3       1 <0>        -0.1485 
      31 H1         0.8729   -0.1187   -2.9231 H         1 <0>         0.0567 
      32 H2         1.0703    0.0513   -4.6808 H         1 <0>         0.0554 
      33 H3         0.7328   -1.5441   -3.9750 H         1 <0>         0.0557 
      34 H4        -1.3012   -0.5930   -5.0028 H         1 <0>         0.0632 
      35 H5        -1.4951   -0.7401   -3.2424 H         1 <0>         0.0635 
      36 H6        -0.6902    1.7958   -4.7280 H         1 <0>         0.0711 
      37 H7        -2.3009    1.4597   -4.0569 H         1 <0>         0.0704 
      38 H8         0.2801    1.5610   -2.4408 H         1 <0>         0.0498 
      39 H9        -0.9200    2.8688   -2.5298 H         1 <0>         0.0505 
      40 H10       -1.3006    2.6798   -0.1695 H         1 <0>         0.0584 
      41 H11       -0.1007    1.3720   -0.0807 H         1 <0>         0.0702 
      42 H12       -1.8509   -0.1785    0.7319 H         1 <0>         0.0872 
      43 H13       -3.0508    1.1293    0.6430 H         1 <0>         0.0805 
      44 H14       -2.2113    1.9601    2.6757 H         1 <0>         0.4058 
      45 H15        1.0111    1.1690    4.2167 H         1 <0>         0.1008 
      46 H16       -0.1401    2.5177    4.0992 H         1 <0>         0.0999 
      47 H17       -2.8450   -0.7818    6.1174 H         1 <0>         0.1557 
      48 H18       -4.0016   -1.5537    8.2415 H         1 <0>         0.1929 
      49 H19        0.2669    2.0760    8.4833 H         1 <0>         0.4317 
      50 H20        0.2740    2.4116   12.9888 H         1 <0>         0.1287 
      51 H21        1.8956    4.0348   13.9100 H         1 <0>         0.1326 
      52 H22        3.2581    4.9384    9.9581 H         1 <0>         0.1342 
      53 H23        1.7488    3.2579    9.0343 H         1 <0>         0.1410 
      54 H24        4.4730    5.7496   11.9439 H         1 <0>         0.0777 
      55 H25        3.8843    5.3658   13.5760 H         1 <0>         0.0771 
      56 H26        2.0014    6.9337   13.2728 H         1 <0>         0.0623 
      57 H27        2.5709    7.3079   11.6316 H         1 <0>         0.0572 
      58 H28        3.5554    7.7635   13.0392 H         1 <0>         0.0578 
@<TRIPOS>BOND
       1        1        2 1        
       2        1       31 1        
       3        1       32 1        
       4        1       33 1        
       5        2        3 1        
       6        2       34 1        
       7        2       35 1        
       8        3        4 1        
       9        3       36 1        
      10        3       37 1        
      11        4        5 1        
      12        4       38 1        
      13        4       39 1        
      14        5        6 1        
      15        6        7 1        
      16        6       40 1        
      17        6       41 1        
      18        7        8 1        
      19        7       42 1        
      20        7       43 1        
      21        8        9 am       
      22        8       44 1        
      23        9       10 2        
      24        9       11 1        
      25       11       12 1        
      26       11       45 1        
      27       11       46 1        
      28       12       13 1        
      29       13       14 2        
      30       13       15 1        
      31       15       19 2        
      32       15       16 1        
      33       16       17 2        
      34       16       47 1        
      35       17       18 1        
      36       17       48 1        
      37       18       19 1        
      38       19       20 1        
      39       20       21 am       
      40       20       49 1        
      41       21       22 2        
      42       21       23 1        
      43       23       28 ar       
      44       23       24 ar       
      45       24       25 ar       
      46       24       50 1        
      47       25       26 ar       
      48       25       51 1        
      49       26       27 ar       
      50       26       29 1        
      51       27       28 ar       
      52       27       52 1        
      53       28       53 1        
      54       29       30 1        
      55       29       54 1        
      56       29       55 1        
      57       30       56 1        
      58       30       57 1        
      59       30       58 1        

