#        1GCZ_R01_S0001_C0000_L00012_S0001_C0031_G0010_E0001.mol2
#        Tue Jun  6 09:59:02 2017
#        Descriptor:     24    30    27     8     8    10
#        Energy - RMSD - RMSD MassCentre:     -88.1964    999.9999    999.9999
#        Receptor:       1  Surface Point:     1  Conformer:     0
#        Ligand:        12  Surface Point:     1  Conformer:    31
#        BUDE Formal Charge: 0
#        ATOM Count: 54
#        Heavy ATOM Count: 28
@<TRIPOS>MOLECULE
ZINC61282011_1GCZ_R01_S0001_C0000_L00012_S0001_C0031_G0010_E0001
 54 56 0 0 0
SMALL
USER_CHARGES
@<TRIPOS>ATOM
       1 C1         3.3341   -2.6342    5.1877 C.3       1 <0>        -0.1394 
       2 C2         2.5020   -1.8545    6.2018 C.3       1 <0>        -0.1416 
       3 C3         1.4417   -2.7590    6.7830 C.2       1 <0>         0.5168 
       4 O1         1.3611   -3.9297    6.4143 O.2       1 <0>        -0.5327 
       5 N1         0.5942   -2.2895    7.6942 N.am      1 <0>        -0.7288 
       6 C4         0.6906   -0.8904    8.1348 C.3       1 <0>         0.1281 
       7 C5         0.1074    0.0118    7.0737 C.2       1 <0>         0.4647 
       8 O2         0.8100    0.7845    6.4932 O.2       1 <0>        -0.5000 
       9 O3        -1.2087   -0.0546    6.7807 O.3       1 <0>        -0.3169 
      10 C6        -1.7156    0.8194    5.7687 C.3       1 <0>         0.0729 
      11 C7        -3.2255    0.6360    5.6464 C.3       1 <0>        -0.1704 
      12 C8        -1.0611    0.4917    4.4479 C.2       1 <0>         0.5166 
      13 O4        -0.2622   -0.4404    4.3711 O.2       1 <0>        -0.4890 
      14 N2        -1.3487    1.2112    3.3670 N.am      1 <0>        -0.6633 
      15 C9        -0.7364    0.9053    2.1287 C.ar      1 <0>         0.1513 
      16 C10        0.0577   -0.2434    2.0294 C.ar      1 <0>        -0.1318 
      17 C11        0.6875   -0.5951    0.8296 C.ar      1 <0>        -0.0823 
      18 C12        0.4799    0.2606   -0.2587 C.ar      1 <0>         0.0206 
      19 C13       -0.3208    1.4039   -0.1505 C.ar      1 <0>         0.0545 
      20 C14       -0.9546    1.7681    1.0434 C.ar      1 <0>        -0.1051 
      21 O5        -0.3032    2.1241   -1.3429 O.3       1 <0>        -0.2879 
      22 C15        0.1511    1.0677   -2.1926 C.3       1 <0>         0.2651 
      23 O6         0.9885    0.1213   -1.5233 O.3       1 <0>        -0.2965 
      24 C16        0.9737    1.6225   -3.4069 C.3       1 <0>        -0.1489 
      25 C17        0.0435    2.0346   -4.5629 C.3       1 <0>        -0.1151 
      26 C18       -0.6554    0.7999   -5.1618 C.3       1 <0>        -0.1246 
      27 C19       -0.8908   -0.2765   -4.0859 C.3       1 <0>        -0.1168 
      28 C20       -1.1143    0.3491   -2.6966 C.3       1 <0>        -0.1129 
      29 H1         2.6902   -2.9842    4.3835 H         1 <0>         0.0628 
      30 H2         4.1064   -1.9862    4.7785 H         1 <0>         0.0629 
      31 H3         3.7979   -3.4869    5.6789 H         1 <0>         0.0642 
      32 H4         2.0264   -1.0095    5.7084 H         1 <0>         0.0966 
      33 H5         3.1470   -1.4934    7.0001 H         1 <0>         0.0967 
      34 H6        -0.1154   -2.8935    8.0837 H         1 <0>         0.4129 
      35 H7         0.1370   -0.7627    9.0627 H         1 <0>         0.1177 
      36 H8         1.7348   -0.6314    8.2963 H         1 <0>         0.1174 
      37 H9        -1.4954    1.8508    6.0357 H         1 <0>         0.1170 
      38 H10       -3.4451   -0.3987    5.3916 H         1 <0>         0.0784 
      39 H11       -3.6984    0.8850    6.5941 H         1 <0>         0.0805 
      40 H12       -3.6078    1.2912    4.8664 H         1 <0>         0.0845 
      41 H13       -2.0047    1.9765    3.4302 H         1 <0>         0.4164 
      42 H14        0.1886   -0.8758    2.8951 H         1 <0>         0.1427 
      43 H15        1.3001   -1.4812    0.7513 H         1 <0>         0.1415 
      44 H16       -1.5693    2.6541    1.1037 H         1 <0>         0.1512 
      45 H17        1.5709    2.4765   -3.0947 H         1 <0>         0.0736 
      46 H18        1.6599    0.8487   -3.7448 H         1 <0>         0.0900 
      47 H19        0.6247    2.5287   -5.3385 H         1 <0>         0.0715 
      48 H20       -0.7035    2.7396   -4.2041 H         1 <0>         0.0728 
      49 H21       -1.6124    1.0962   -5.5864 H         1 <0>         0.0706 
      50 H22       -0.0482    0.3863   -5.9643 H         1 <0>         0.0661 
      51 H23       -0.0258   -0.9349   -4.0435 H         1 <0>         0.0735 
      52 H24       -1.7556   -0.8787   -4.3568 H         1 <0>         0.0762 
      53 H25       -1.9293    1.0678   -2.7490 H         1 <0>         0.0928 
      54 H26       -1.4007   -0.4278   -1.9908 H         1 <0>         0.0829 
@<TRIPOS>BOND
       1        1        2 1        
       2        1       29 1        
       3        1       30 1        
       4        1       31 1        
       5        2        3 1        
       6        2       32 1        
       7        2       33 1        
       8        3        4 2        
       9        3        5 am       
      10        5        6 1        
      11        5       34 1        
      12        6        7 1        
      13        6       35 1        
      14        6       36 1        
      15        7        8 2        
      16        7        9 1        
      17        9       10 1        
      18       10       11 1        
      19       10       12 1        
      20       10       37 1        
      21       11       38 1        
      22       11       39 1        
      23       11       40 1        
      24       12       13 2        
      25       12       14 am       
      26       14       15 1        
      27       14       41 1        
      28       15       20 ar       
      29       15       16 ar       
      30       16       17 ar       
      31       16       42 1        
      32       17       18 ar       
      33       17       43 1        
      34       18       23 1        
      35       18       19 ar       
      36       19       20 ar       
      37       19       21 1        
      38       20       44 1        
      39       21       22 1        
      40       22       28 1        
      41       22       23 1        
      42       22       24 1        
      43       24       25 1        
      44       24       45 1        
      45       24       46 1        
      46       25       26 1        
      47       25       47 1        
      48       25       48 1        
      49       26       27 1        
      50       26       49 1        
      51       26       50 1        
      52       27       28 1        
      53       27       51 1        
      54       27       52 1        
      55       28       53 1        
      56       28       54 1        

