#        1GCZ_R01_S0001_C0000_L00012_S0001_C0031_G0010_E0001.mol2
#        Tue Jun  6 14:13:59 2017
#        Descriptor:     23    31    33     8     9    11
#        Energy - RMSD - RMSD MassCentre:     -77.3954    999.9999    999.9999
#        Receptor:       1  Surface Point:     1  Conformer:     0
#        Ligand:        12  Surface Point:     1  Conformer:    31
#        BUDE Formal Charge: 0
#        ATOM Count: 54
#        Heavy ATOM Count: 28
@<TRIPOS>MOLECULE
ZINC61282011_1GCZ_R01_S0001_C0000_L00012_S0001_C0031_G0010_E0001
 54 56 0 0 0
SMALL
USER_CHARGES
@<TRIPOS>ATOM
       1 C1         3.3223    3.6503    6.1867 C.3       1 <0>        -0.1394 
       2 C2         2.1780    3.3309    7.1445 C.3       1 <0>        -0.1416 
       3 C3         2.5445    2.1290    7.9818 C.2       1 <0>         0.5168 
       4 O1         3.6317    1.5760    7.8229 O.2       1 <0>        -0.5327 
       5 N1         1.6911    1.6678    8.8918 N.am      1 <0>        -0.7288 
       6 C4         0.3919    2.3287    9.0817 C.3       1 <0>         0.1281 
       7 C5        -0.5387    1.9397    7.9579 C.2       1 <0>         0.4647 
       8 O2        -0.9190    2.7659    7.1830 O.2       1 <0>        -0.5000 
       9 O3        -0.9412    0.6577    7.8287 O.3       1 <0>        -0.3169 
      10 C6        -1.8225    0.3369    6.7492 C.3       1 <0>         0.0729 
      11 C7        -2.2098   -1.1370    6.8282 C.3       1 <0>        -0.1704 
      12 C8        -1.1264    0.6038    5.4360 C.2       1 <0>         0.5166 
      13 O4         0.0404    0.9927    5.4255 O.2       1 <0>        -0.4890 
      14 N2        -1.7754    0.4181    4.2901 N.am      1 <0>        -0.6633 
      15 C9        -1.1244    0.6675    3.0588 C.ar      1 <0>         0.1513 
      16 C10        0.2422    0.9710    3.0626 C.ar      1 <0>        -0.1318 
      17 C11        0.9376    1.2265    1.8746 C.ar      1 <0>        -0.0823 
      18 C12        0.1944    1.1617    0.6900 C.ar      1 <0>         0.0206 
      19 C13       -1.1707    0.8517    0.6965 C.ar      1 <0>         0.0545 
      20 C14       -1.8784    0.5960    1.8771 C.ar      1 <0>        -0.1051 
      21 O5        -1.6927    0.9285   -0.5928 O.3       1 <0>        -0.2879 
      22 C15       -0.4549    0.8287   -1.3017 C.3       1 <0>         0.2651 
      23 O6         0.6560    1.3711   -0.5829 O.3       1 <0>        -0.2965 
      24 C16       -0.5187    1.5829   -2.6751 C.3       1 <0>        -0.1489 
      25 C17       -1.1190    0.6842   -3.7721 C.3       1 <0>        -0.1151 
      26 C18       -0.1804   -0.4981   -4.0770 C.3       1 <0>        -0.1246 
      27 C19        0.5999   -0.9214   -2.8186 C.3       1 <0>        -0.1168 
      28 C20       -0.2151   -0.6744   -1.5356 C.3       1 <0>        -0.1129 
      29 H1         3.4912    2.8007    5.5283 H         1 <0>         0.0628 
      30 H2         3.0637    4.5243    5.5925 H         1 <0>         0.0629 
      31 H3         4.2262    3.8532    6.7572 H         1 <0>         0.0642 
      32 H4         1.2771    3.1141    6.5745 H         1 <0>         0.0966 
      33 H5         1.9999    4.1846    7.7951 H         1 <0>         0.0967 
      34 H6         1.9352    0.8639    9.4525 H         1 <0>         0.4129 
      35 H7        -0.0382    2.0184   10.0316 H         1 <0>         0.1177 
      36 H8         0.5295    3.4079    9.0806 H         1 <0>         0.1174 
      37 H9        -2.7176    0.9518    6.8158 H         1 <0>         0.1170 
      38 H10       -1.3129   -1.7504    6.7740 H         1 <0>         0.0784 
      39 H11       -2.7232   -1.3265    7.7685 H         1 <0>         0.0805 
      40 H12       -2.8690   -1.3831    5.9983 H         1 <0>         0.0845 
      41 H13       -2.7334    0.0987    4.2987 H         1 <0>         0.4164 
      42 H14        0.7760    1.0082    4.0008 H         1 <0>         0.1427 
      43 H15        1.9919    1.4603    1.8759 H         1 <0>         0.1415 
      44 H16       -2.9315    0.3573    1.8584 H         1 <0>         0.1512 
      45 H17       -1.1135    2.4885   -2.5769 H         1 <0>         0.0736 
      46 H18        0.4893    1.8817   -2.9550 H         1 <0>         0.0900 
      47 H19       -1.2670    1.2671   -4.6786 H         1 <0>         0.0715 
      48 H20       -2.0890    0.3083   -3.4536 H         1 <0>         0.0728 
      49 H21       -0.7662   -1.3421   -4.4352 H         1 <0>         0.0706 
      50 H22        0.5187   -0.2199   -4.8628 H         1 <0>         0.0661 
      51 H23        1.5267   -0.3543   -2.7649 H         1 <0>         0.0735 
      52 H24        0.8576   -1.9763   -2.8881 H         1 <0>         0.0762 
      53 H25       -1.1775   -1.1757   -1.6148 H         1 <0>         0.0928 
      54 H26        0.3119   -1.0988   -0.6837 H         1 <0>         0.0829 
@<TRIPOS>BOND
       1        1        2 1        
       2        1       29 1        
       3        1       30 1        
       4        1       31 1        
       5        2        3 1        
       6        2       32 1        
       7        2       33 1        
       8        3        4 2        
       9        3        5 am       
      10        5        6 1        
      11        5       34 1        
      12        6        7 1        
      13        6       35 1        
      14        6       36 1        
      15        7        8 2        
      16        7        9 1        
      17        9       10 1        
      18       10       11 1        
      19       10       12 1        
      20       10       37 1        
      21       11       38 1        
      22       11       39 1        
      23       11       40 1        
      24       12       13 2        
      25       12       14 am       
      26       14       15 1        
      27       14       41 1        
      28       15       20 ar       
      29       15       16 ar       
      30       16       17 ar       
      31       16       42 1        
      32       17       18 ar       
      33       17       43 1        
      34       18       23 1        
      35       18       19 ar       
      36       19       20 ar       
      37       19       21 1        
      38       20       44 1        
      39       21       22 1        
      40       22       28 1        
      41       22       23 1        
      42       22       24 1        
      43       24       25 1        
      44       24       45 1        
      45       24       46 1        
      46       25       26 1        
      47       25       47 1        
      48       25       48 1        
      49       26       27 1        
      50       26       49 1        
      51       26       50 1        
      52       27       28 1        
      53       27       51 1        
      54       27       52 1        
      55       28       53 1        
      56       28       54 1        

