#        1GCZ_R01_S0001_C0000_L00012_S0001_C0032_G0010_E0001.mol2
#        Tue Jun  6 09:59:03 2017
#        Descriptor:      5    23    16     8     9    12
#        Energy - RMSD - RMSD MassCentre:     -75.5896    999.9999    999.9999
#        Receptor:       1  Surface Point:     1  Conformer:     0
#        Ligand:        12  Surface Point:     1  Conformer:    32
#        BUDE Formal Charge: 0
#        ATOM Count: 54
#        Heavy ATOM Count: 28
@<TRIPOS>MOLECULE
ZINC61282011_1GCZ_R01_S0001_C0000_L00012_S0001_C0032_G0010_E0001
 54 56 0 0 0
SMALL
USER_CHARGES
@<TRIPOS>ATOM
       1 C1         2.6368    4.0685    7.1158 C.3       1 <0>        -0.1394 
       2 C2         1.5653    3.5553    8.0737 C.3       1 <0>        -0.1416 
       3 C3         2.1350    2.4352    8.9110 C.2       1 <0>         0.5168 
       4 O1         3.3016    2.0794    8.7521 O.2       1 <0>        -0.5327 
       5 N1         1.3746    1.8328    9.8210 N.am      1 <0>        -0.7288 
       6 C4        -0.0196    2.2581   10.0109 C.3       1 <0>         0.1281 
       7 C5        -0.8685    1.7134    8.8871 C.2       1 <0>         0.4647 
       8 O2        -1.3865    2.4610    8.1122 O.2       1 <0>        -0.5000 
       9 O3        -1.0423    0.3810    8.7578 O.3       1 <0>        -0.3169 
      10 C6        -1.8545   -0.0880    7.6784 C.3       1 <0>         0.0729 
      11 C7        -1.9800   -1.6067    7.7574 C.3       1 <0>        -0.1704 
      12 C8        -1.2153    0.2957    6.3652 C.2       1 <0>         0.5166 
      13 O4        -0.1338    0.8814    6.3546 O.2       1 <0>        -0.4890 
      14 N2        -1.8222    0.0001    5.2192 N.am      1 <0>        -0.6633 
      15 C9        -1.2244    0.3588    3.9880 C.ar      1 <0>         0.1513 
      16 C10        0.0687    0.8950    3.9918 C.ar      1 <0>        -0.1318 
      17 C11        0.7092    1.2674    2.8038 C.ar      1 <0>        -0.0823 
      18 C12       -0.0115    1.0745    1.6192 C.ar      1 <0>         0.0206 
      19 C13       -1.3020    0.5322    1.6257 C.ar      1 <0>         0.0545 
      20 C14       -1.9545    0.1574    2.8063 C.ar      1 <0>        -0.1051 
      21 O5        -1.8294    0.5171    0.3363 O.3       1 <0>        -0.2879 
      22 C15       -0.5931    0.6338   -0.3725 C.3       1 <0>         0.2651 
      23 O6         0.4068    1.3608    0.3463 O.3       1 <0>        -0.2965 
      24 C16       -0.8091    1.3515   -1.6923 C.3       1 <0>        -0.1489 
      25 C17        0.4914    1.5440   -2.4941 C.3       1 <0>        -0.1151 
      26 C18        1.4583    0.3711   -2.2473 C.3       1 <0>        -0.1246 
      27 C19        0.6859   -0.9224   -1.9278 C.3       1 <0>        -0.1168 
      28 C20       -0.0960   -0.8048   -0.6064 C.3       1 <0>        -0.1129 
      29 H1         2.9507    3.2611    6.4575 H         1 <0>         0.0628 
      30 H2         2.2303    4.8843    6.5217 H         1 <0>         0.0629 
      31 H3         3.4917    4.4253    7.6864 H         1 <0>         0.0642 
      32 H4         0.7157    3.1853    7.5037 H         1 <0>         0.0966 
      33 H5         1.2417    4.3650    8.7243 H         1 <0>         0.0967 
      34 H6         1.7546    1.0835   10.3817 H         1 <0>         0.4129 
      35 H7        -0.3893    1.8778   10.9608 H         1 <0>         0.1177 
      36 H8        -0.0715    3.3448   10.0098 H         1 <0>         0.1174 
      37 H9        -2.8428    0.3621    7.7450 H         1 <0>         0.1170 
      38 H10       -0.9902   -2.0551    7.7031 H         1 <0>         0.0784 
      39 H11       -2.4527   -1.8825    8.6977 H         1 <0>         0.0805 
      40 H12       -2.5864   -1.9636    6.9275 H         1 <0>         0.0845 
      41 H13       -2.7102   -0.4808    5.2279 H         1 <0>         0.4164 
      42 H14        0.5879    1.0244    4.9299 H         1 <0>         0.1427 
      43 H15        1.7069    1.6808    2.8051 H         1 <0>         0.1415 
      44 H16       -2.9502   -0.2605    2.7876 H         1 <0>         0.1512 
      45 H17       -1.5269    0.7909   -2.2873 H         1 <0>         0.0736 
      46 H18       -1.2521    2.3203   -1.4714 H         1 <0>         0.0900 
      47 H19        0.9705    2.4729   -2.1920 H         1 <0>         0.0715 
      48 H20        0.2651    1.6141   -3.5561 H         1 <0>         0.0728 
      49 H21        2.0692    0.2130   -3.1337 H         1 <0>         0.0706 
      50 H22        2.1247    0.6110   -1.4215 H         1 <0>         0.0661 
      51 H23        1.3890   -1.7492   -1.8517 H         1 <0>         0.0735 
      52 H24       -0.0037   -1.1444   -2.7398 H         1 <0>         0.0762 
      53 H25       -0.9538   -1.4734   -0.6315 H         1 <0>         0.0928 
      54 H26        0.5409   -1.1119    0.2205 H         1 <0>         0.0829 
@<TRIPOS>BOND
       1        1        2 1        
       2        1       29 1        
       3        1       30 1        
       4        1       31 1        
       5        2        3 1        
       6        2       32 1        
       7        2       33 1        
       8        3        4 2        
       9        3        5 am       
      10        5        6 1        
      11        5       34 1        
      12        6        7 1        
      13        6       35 1        
      14        6       36 1        
      15        7        8 2        
      16        7        9 1        
      17        9       10 1        
      18       10       11 1        
      19       10       12 1        
      20       10       37 1        
      21       11       38 1        
      22       11       39 1        
      23       11       40 1        
      24       12       13 2        
      25       12       14 am       
      26       14       15 1        
      27       14       41 1        
      28       15       20 ar       
      29       15       16 ar       
      30       16       17 ar       
      31       16       42 1        
      32       17       18 ar       
      33       17       43 1        
      34       18       23 1        
      35       18       19 ar       
      36       19       20 ar       
      37       19       21 1        
      38       20       44 1        
      39       21       22 1        
      40       22       28 1        
      41       22       23 1        
      42       22       24 1        
      43       24       25 1        
      44       24       45 1        
      45       24       46 1        
      46       25       26 1        
      47       25       47 1        
      48       25       48 1        
      49       26       27 1        
      50       26       49 1        
      51       26       50 1        
      52       27       28 1        
      53       27       51 1        
      54       27       52 1        
      55       28       53 1        
      56       28       54 1        

