#        1GCZ_R01_S0001_C0000_L00012_S0001_C0032_G0010_E0001.mol2
#        Tue Jun  6 14:14:01 2017
#        Descriptor:      3    24    13     9     8    13
#        Energy - RMSD - RMSD MassCentre:     -65.3642    999.9999    999.9999
#        Receptor:       1  Surface Point:     1  Conformer:     0
#        Ligand:        12  Surface Point:     1  Conformer:    32
#        BUDE Formal Charge: 0
#        ATOM Count: 54
#        Heavy ATOM Count: 28
@<TRIPOS>MOLECULE
ZINC61282011_1GCZ_R01_S0001_C0000_L00012_S0001_C0032_G0010_E0001
 54 56 0 0 0
SMALL
USER_CHARGES
@<TRIPOS>ATOM
       1 C1         4.9635    2.4580    7.0798 C.3       1 <0>        -0.1394 
       2 C2         4.0900    2.2470    8.3132 C.3       1 <0>        -0.1416 
       3 C3         4.5943    1.0528    9.0876 C.2       1 <0>         0.5168 
       4 O1         5.5717    0.4248    8.6835 O.2       1 <0>        -0.5327 
       5 N1         3.9813    0.6798   10.2074 N.am      1 <0>        -0.7288 
       6 C4         2.8134    1.4304   10.6903 C.3       1 <0>         0.1281 
       7 C5         1.6041    1.0652    9.8629 C.2       1 <0>         0.4647 
       8 O2         1.0821    1.8877    9.1710 O.2       1 <0>        -0.5000 
       9 O3         1.1126   -0.1914    9.9048 O.3       1 <0>        -0.3169 
      10 C6        -0.0339   -0.4903    9.1042 C.3       1 <0>         0.0729 
      11 C7        -0.4673   -1.9321    9.3528 C.3       1 <0>        -0.1704 
      12 C8         0.3126   -0.3144    7.6450 C.2       1 <0>         0.5166 
      13 O4         1.4565   -0.0033    7.3169 O.2       1 <0>        -0.4890 
      14 N2        -0.6195   -0.4961    6.7139 N.am      1 <0>        -0.6633 
      15 C9        -0.2963   -0.3318    5.3463 C.ar      1 <0>         0.1513 
      16 C10        1.0393   -0.1186    4.9852 C.ar      1 <0>        -0.1318 
      17 C11        1.4169    0.0503    3.6476 C.ar      1 <0>        -0.0823 
      18 C12        0.3904   -0.0059    2.6973 C.ar      1 <0>         0.0206 
      19 C13       -0.9415   -0.2254    3.0684 C.ar      1 <0>         0.0545 
      20 C14       -1.3328   -0.3940    4.4019 C.ar      1 <0>        -0.1051 
      21 O5        -1.7739   -0.1586    1.9533 O.3       1 <0>        -0.2879 
      22 C15       -0.7688   -0.3632    0.9572 C.3       1 <0>         0.2651 
      23 O6         0.5181    0.1293    1.3399 O.3       1 <0>        -0.2965 
      24 C16       -1.1543    0.3399   -0.3314 C.3       1 <0>        -0.1489 
      25 C17       -0.0960    0.1904   -1.4400 C.3       1 <0>        -0.1151 
      26 C18        0.6176   -1.1696   -1.3274 C.3       1 <0>        -0.1246 
      27 C19       -0.3122   -2.2308   -0.7102 C.3       1 <0>        -0.1168 
      28 C20       -0.6799   -1.8858    0.7448 C.3       1 <0>        -0.1129 
      29 H1         4.9099    1.5772    6.4433 H         1 <0>         0.0628 
      30 H2         4.6081    3.3264    6.5289 H         1 <0>         0.0629 
      31 H3         5.9937    2.6206    7.3892 H         1 <0>         0.0642 
      32 H4         3.0619    2.0704    8.0043 H         1 <0>         0.0966 
      33 H5         4.1329    3.1321    8.9445 H         1 <0>         0.0967 
      34 H6         4.3178   -0.1189   10.7262 H         1 <0>         0.4129 
      35 H7         2.6271    1.1814   11.7329 H         1 <0>         0.1177 
      36 H8         3.0046    2.4976   10.6004 H         1 <0>         0.1174 
      37 H9        -0.8464    0.1837    9.3670 H         1 <0>         0.1170 
      38 H10        0.3503   -2.6044    9.1014 H         1 <0>         0.0784 
      39 H11       -0.7298   -2.0555   10.4014 H         1 <0>         0.0805 
      40 H12       -1.3310   -2.1627    8.7325 H         1 <0>         0.0845 
      41 H13       -1.5587   -0.7516    6.9833 H         1 <0>         0.4164 
      42 H14        1.7986   -0.0845    5.7524 H         1 <0>         0.1427 
      43 H15        2.4469    0.2145    3.3674 H         1 <0>         0.1415 
      44 H16       -2.3664   -0.5637    4.6652 H         1 <0>         0.1512 
      45 H17       -2.1071   -0.0539   -0.6788 H         1 <0>         0.0736 
      46 H18       -1.2995    1.3931   -0.1008 H         1 <0>         0.0900 
      47 H19        0.6380    0.9886   -1.3516 H         1 <0>         0.0715 
      48 H20       -0.5678    0.2762   -2.4167 H         1 <0>         0.0728 
      49 H21        0.9280   -1.4984   -2.3171 H         1 <0>         0.0706 
      50 H22        1.5108   -1.0670   -0.7148 H         1 <0>         0.0661 
      51 H23        0.1858   -3.1979   -0.7307 H         1 <0>         0.0735 
      52 H24       -1.2196   -2.3100   -1.3056 H         1 <0>         0.0762 
      53 H25       -1.6410   -2.3318    0.9917 H         1 <0>         0.0928 
      54 H26        0.0648   -2.3072    1.4168 H         1 <0>         0.0829 
@<TRIPOS>BOND
       1        1        2 1        
       2        1       29 1        
       3        1       30 1        
       4        1       31 1        
       5        2        3 1        
       6        2       32 1        
       7        2       33 1        
       8        3        4 2        
       9        3        5 am       
      10        5        6 1        
      11        5       34 1        
      12        6        7 1        
      13        6       35 1        
      14        6       36 1        
      15        7        8 2        
      16        7        9 1        
      17        9       10 1        
      18       10       11 1        
      19       10       12 1        
      20       10       37 1        
      21       11       38 1        
      22       11       39 1        
      23       11       40 1        
      24       12       13 2        
      25       12       14 am       
      26       14       15 1        
      27       14       41 1        
      28       15       20 ar       
      29       15       16 ar       
      30       16       17 ar       
      31       16       42 1        
      32       17       18 ar       
      33       17       43 1        
      34       18       23 1        
      35       18       19 ar       
      36       19       20 ar       
      37       19       21 1        
      38       20       44 1        
      39       21       22 1        
      40       22       28 1        
      41       22       23 1        
      42       22       24 1        
      43       24       25 1        
      44       24       45 1        
      45       24       46 1        
      46       25       26 1        
      47       25       47 1        
      48       25       48 1        
      49       26       27 1        
      50       26       49 1        
      51       26       50 1        
      52       27       28 1        
      53       27       51 1        
      54       27       52 1        
      55       28       53 1        
      56       28       54 1        

