#        1GCZ_R01_S0001_C0000_L00012_S0001_C0033_G0010_E0001.mol2
#        Tue Jun  6 14:14:03 2017
#        Descriptor:     34    22     4     9     7    12
#        Energy - RMSD - RMSD MassCentre:     -73.1931    999.9999    999.9999
#        Receptor:       1  Surface Point:     1  Conformer:     0
#        Ligand:        12  Surface Point:     1  Conformer:    33
#        BUDE Formal Charge: 0
#        ATOM Count: 54
#        Heavy ATOM Count: 28
@<TRIPOS>MOLECULE
ZINC61282011_1GCZ_R01_S0001_C0000_L00012_S0001_C0033_G0010_E0001
 54 56 0 0 0
SMALL
USER_CHARGES
@<TRIPOS>ATOM
       1 C1         3.3673   -5.1604   10.2442 C.3       1 <0>        -0.1394 
       2 C2         2.5957   -4.3557    9.2023 C.3       1 <0>        -0.1416 
       3 C3         3.5689   -3.6015    8.3282 C.2       1 <0>         0.5168 
       4 O1         4.7789   -3.7017    8.5251 O.2       1 <0>        -0.5327 
       5 N1         3.1176   -2.8284    7.3446 N.am      1 <0>        -0.7288 
       6 C4         1.6716   -2.7087    7.1091 C.3       1 <0>         0.1281 
       7 C5         1.0664   -1.7992    8.1516 C.2       1 <0>         0.4647 
       8 O2         0.2840   -2.2340    8.9432 O.2       1 <0>        -0.5000 
       9 O3         1.4094   -0.4941    8.1892 O.3       1 <0>        -0.3169 
      10 C6         2.3494   -0.0196    7.2217 C.3       1 <0>         0.0729 
      11 C7         2.6518    1.4529    7.4848 C.3       1 <0>        -0.1704 
      12 C8         1.7662   -0.1731    5.8373 C.2       1 <0>         0.5166 
      13 O4         2.3512   -0.8517    4.9945 O.2       1 <0>        -0.4890 
      14 N2         0.6194    0.4256    5.5291 N.am      1 <0>        -0.6633 
      15 C9         0.0716    0.2826    4.2323 C.ar      1 <0>         0.1513 
      16 C10       -1.1602    0.8828    3.9456 C.ar      1 <0>        -0.1318 
      17 C11       -1.7491    0.7743    2.6803 C.ar      1 <0>        -0.0823 
      18 C12       -1.0417    0.0368    1.7235 C.ar      1 <0>         0.0206 
      19 C13        0.1923   -0.5546    2.0186 C.ar      1 <0>         0.0545 
      20 C14        0.7916   -0.4555    3.2799 C.ar      1 <0>        -0.1051 
      21 O5         0.6499   -1.2938    0.9298 O.3       1 <0>        -0.2879 
      22 C15       -0.1617   -0.6738   -0.0710 C.3       1 <0>         0.2651 
      23 O6        -1.4164   -0.2025    0.4275 O.3       1 <0>        -0.2965 
      24 C16       -0.4022   -1.6914   -1.2209 C.3       1 <0>        -0.1489 
      25 C17       -0.4544   -1.0150   -2.6033 C.3       1 <0>        -0.1151 
      26 C18       -1.0517    0.4000   -2.4916 C.3       1 <0>        -0.1246 
      27 C19       -0.1414    1.3181   -1.6548 C.3       1 <0>        -0.1168 
      28 C20        0.6498    0.5238   -0.5992 C.3       1 <0>        -0.1129 
      29 H1         3.9485   -4.4833   10.8669 H         1 <0>         0.0628 
      30 H2         2.6666   -5.7141   10.8656 H         1 <0>         0.0629 
      31 H3         4.0360   -5.8562    9.7419 H         1 <0>         0.0642 
      32 H4         1.9369   -3.6495    9.7035 H         1 <0>         0.0966 
      33 H5         2.0043   -5.0306    8.5869 H         1 <0>         0.0967 
      34 H6         3.7677   -2.3235    6.7593 H         1 <0>         0.4129 
      35 H7         1.4979   -2.2912    6.1197 H         1 <0>         0.1177 
      36 H8         1.2102   -3.6918    7.1745 H         1 <0>         0.1174 
      37 H9         3.2682   -0.5976    7.2937 H         1 <0>         0.1170 
      38 H10        1.7302    2.0281    7.4248 H         1 <0>         0.0784 
      39 H11        3.0843    1.5620    8.4770 H         1 <0>         0.0805 
      40 H12        3.3562    1.8165    6.7395 H         1 <0>         0.0845 
      41 H13        0.1391    0.9828    6.2211 H         1 <0>         0.4164 
      42 H14       -1.6699    1.4442    4.7146 H         1 <0>         0.1427 
      43 H15       -2.6992    1.2370    2.4573 H         1 <0>         0.1415 
      44 H16        1.7452   -0.9190    3.4850 H         1 <0>         0.1512 
      45 H17        0.3859   -2.4413   -1.2092 H         1 <0>         0.0736 
      46 H18       -1.3429   -2.2016   -1.0251 H         1 <0>         0.0900 
      47 H19       -1.0677   -1.6106   -3.2763 H         1 <0>         0.0715 
      48 H20        0.5466   -0.9571   -3.0256 H         1 <0>         0.0728 
      49 H21       -1.1683    0.8233   -3.4870 H         1 <0>         0.0706 
      50 H22       -2.0371    0.3484   -2.0334 H         1 <0>         0.0661 
      51 H23       -0.7521    2.0654   -1.1523 H         1 <0>         0.0735 
      52 H24        0.5514    1.8401   -2.3117 H         1 <0>         0.0762 
      53 H25        1.5738    0.1555   -1.0395 H         1 <0>         0.0928 
      54 H26        0.9137    1.1810    0.2268 H         1 <0>         0.0829 
@<TRIPOS>BOND
       1        1        2 1        
       2        1       29 1        
       3        1       30 1        
       4        1       31 1        
       5        2        3 1        
       6        2       32 1        
       7        2       33 1        
       8        3        4 2        
       9        3        5 am       
      10        5        6 1        
      11        5       34 1        
      12        6        7 1        
      13        6       35 1        
      14        6       36 1        
      15        7        8 2        
      16        7        9 1        
      17        9       10 1        
      18       10       11 1        
      19       10       12 1        
      20       10       37 1        
      21       11       38 1        
      22       11       39 1        
      23       11       40 1        
      24       12       13 2        
      25       12       14 am       
      26       14       15 1        
      27       14       41 1        
      28       15       20 ar       
      29       15       16 ar       
      30       16       17 ar       
      31       16       42 1        
      32       17       18 ar       
      33       17       43 1        
      34       18       23 1        
      35       18       19 ar       
      36       19       20 ar       
      37       19       21 1        
      38       20       44 1        
      39       21       22 1        
      40       22       28 1        
      41       22       23 1        
      42       22       24 1        
      43       24       25 1        
      44       24       45 1        
      45       24       46 1        
      46       25       26 1        
      47       25       47 1        
      48       25       48 1        
      49       26       27 1        
      50       26       49 1        
      51       26       50 1        
      52       27       28 1        
      53       27       51 1        
      54       27       52 1        
      55       28       53 1        
      56       28       54 1        

