#        1GCZ_R01_S0001_C0000_L00012_S0001_C0034_G0010_E0001.mol2
#        Tue Jun  6 09:59:05 2017
#        Descriptor:      3    25    26     8    10    12
#        Energy - RMSD - RMSD MassCentre:     -78.2099    999.9999    999.9999
#        Receptor:       1  Surface Point:     1  Conformer:     0
#        Ligand:        12  Surface Point:     1  Conformer:    34
#        BUDE Formal Charge: 0
#        ATOM Count: 54
#        Heavy ATOM Count: 28
@<TRIPOS>MOLECULE
ZINC61282011_1GCZ_R01_S0001_C0000_L00012_S0001_C0034_G0010_E0001
 54 56 0 0 0
SMALL
USER_CHARGES
@<TRIPOS>ATOM
       1 C1        -0.5083    7.1287    8.0451 C.3       1 <0>        -0.1394 
       2 C2        -0.5641    7.1290    9.5702 C.3       1 <0>        -0.1416 
       3 C3        -0.6300    5.7059   10.0707 C.2       1 <0>         0.5168 
       4 O1         0.2588    5.2677   10.7995 O.2       1 <0>        -0.5327 
       5 N1        -1.6497    4.9258    9.7236 N.am      1 <0>        -0.7288 
       6 C4        -1.7138    3.5405   10.2110 C.3       1 <0>         0.1281 
       7 C5        -0.7458    2.6869    9.4270 C.2       1 <0>         0.4647 
       8 O2         0.1939    2.1914    9.9744 O.2       1 <0>        -0.5000 
       9 O3        -0.9420    2.4833    8.1070 O.3       1 <0>        -0.3169 
      10 C6         0.0011    1.6678    7.4067 C.3       1 <0>         0.0729 
      11 C7         1.3895    2.2928    7.5082 C.3       1 <0>        -0.1704 
      12 C8        -0.4006    1.5694    5.9544 C.2       1 <0>         0.5166 
      13 O4        -1.3854    2.1821    5.5450 O.2       1 <0>        -0.4890 
      14 N2         0.3109    0.8198    5.1174 N.am      1 <0>        -0.6633 
      15 C9        -0.0641    0.7266    3.7563 C.ar      1 <0>         0.1513 
      16 C10       -1.0987    1.5405    3.2800 C.ar      1 <0>        -0.1318 
      17 C11       -1.5115    1.4908    1.9431 C.ar      1 <0>        -0.0823 
      18 C12       -0.8356    0.5873    1.1143 C.ar      1 <0>         0.0206 
      19 C13        0.2017   -0.2181    1.5992 C.ar      1 <0>         0.0545 
      20 C14        0.6229   -0.1797    2.9337 C.ar      1 <0>        -0.1051 
      21 O5         0.6535   -1.0807    0.6029 O.3       1 <0>        -0.2879 
      22 C15        0.1320   -0.3615   -0.5175 C.3       1 <0>         0.2651 
      23 O6        -1.0621    0.3664   -0.2188 O.3       1 <0>        -0.2965 
      24 C16       -0.2088   -1.3238   -1.7079 C.3       1 <0>        -0.1489 
      25 C17        1.0358   -1.5959   -2.5728 C.3       1 <0>        -0.1151 
      26 C18        1.4861   -0.3112   -3.2927 C.3       1 <0>        -0.1246 
      27 C19        1.1665    0.9357   -2.4472 C.3       1 <0>        -0.1168 
      28 C20        1.2316    0.6307   -0.9391 C.3       1 <0>        -0.1129 
      29 H1        -1.4060    6.6574    7.6501 H         1 <0>         0.0628 
      30 H2        -0.4476    8.1535    7.6850 H         1 <0>         0.0629 
      31 H3         0.3681    6.5750    7.7151 H         1 <0>         0.0642 
      32 H4        -1.4479    7.6704    9.9011 H         1 <0>         0.0966 
      33 H5         0.3270    7.6113    9.9662 H         1 <0>         0.0967 
      34 H6        -2.3801    5.2846    9.1254 H         1 <0>         0.4129 
      35 H7        -1.4481    3.5137   11.2656 H         1 <0>         0.1177 
      36 H8        -2.7231    3.1558   10.0808 H         1 <0>         0.1174 
      37 H9         0.0177    0.6726    7.8459 H         1 <0>         0.1170 
      38 H10        1.3687    3.2927    7.0799 H         1 <0>         0.0784 
      39 H11        1.6846    2.3514    8.5537 H         1 <0>         0.0805 
      40 H12        2.1036    1.6789    6.9631 H         1 <0>         0.0845 
      41 H13        1.1195    0.3167    5.4536 H         1 <0>         0.4164 
      42 H14       -1.5910    2.2246    3.9554 H         1 <0>         0.1427 
      43 H15       -2.3092    2.1183    1.5740 H         1 <0>         0.1415 
      44 H16        1.4266   -0.8093    3.2858 H         1 <0>         0.1512 
      45 H17       -0.6035   -2.2635   -1.3275 H         1 <0>         0.0736 
      46 H18       -0.9857   -0.8641   -2.3153 H         1 <0>         0.0900 
      47 H19        0.8043   -2.3589   -3.3128 H         1 <0>         0.0715 
      48 H20        1.8459   -1.9689   -1.9495 H         1 <0>         0.0728 
      49 H21        2.5580   -0.3548   -3.4743 H         1 <0>         0.0706 
      50 H22        0.9874   -0.2353   -4.2567 H         1 <0>         0.0661 
      51 H23        0.1679    1.2894   -2.6948 H         1 <0>         0.0735 
      52 H24        1.8710    1.7291   -2.6884 H         1 <0>         0.0762 
      53 H25        2.2023    0.2033   -0.6969 H         1 <0>         0.0928 
      54 H26        1.1260    1.5561   -0.3770 H         1 <0>         0.0829 
@<TRIPOS>BOND
       1        1        2 1        
       2        1       29 1        
       3        1       30 1        
       4        1       31 1        
       5        2        3 1        
       6        2       32 1        
       7        2       33 1        
       8        3        4 2        
       9        3        5 am       
      10        5        6 1        
      11        5       34 1        
      12        6        7 1        
      13        6       35 1        
      14        6       36 1        
      15        7        8 2        
      16        7        9 1        
      17        9       10 1        
      18       10       11 1        
      19       10       12 1        
      20       10       37 1        
      21       11       38 1        
      22       11       39 1        
      23       11       40 1        
      24       12       13 2        
      25       12       14 am       
      26       14       15 1        
      27       14       41 1        
      28       15       20 ar       
      29       15       16 ar       
      30       16       17 ar       
      31       16       42 1        
      32       17       18 ar       
      33       17       43 1        
      34       18       23 1        
      35       18       19 ar       
      36       19       20 ar       
      37       19       21 1        
      38       20       44 1        
      39       21       22 1        
      40       22       28 1        
      41       22       23 1        
      42       22       24 1        
      43       24       25 1        
      44       24       45 1        
      45       24       46 1        
      46       25       26 1        
      47       25       47 1        
      48       25       48 1        
      49       26       27 1        
      50       26       49 1        
      51       26       50 1        
      52       27       28 1        
      53       27       51 1        
      54       27       52 1        
      55       28       53 1        
      56       28       54 1        

