#        1GCZ_R01_S0001_C0000_L00012_S0001_C0034_G0010_E0001.mol2
#        Tue Jun  6 14:14:05 2017
#        Descriptor:      6    23    15     7     7    14
#        Energy - RMSD - RMSD MassCentre:     -65.9150    999.9999    999.9999
#        Receptor:       1  Surface Point:     1  Conformer:     0
#        Ligand:        12  Surface Point:     1  Conformer:    34
#        BUDE Formal Charge: 0
#        ATOM Count: 54
#        Heavy ATOM Count: 28
@<TRIPOS>MOLECULE
ZINC61282011_1GCZ_R01_S0001_C0000_L00012_S0001_C0034_G0010_E0001
 54 56 0 0 0
SMALL
USER_CHARGES
@<TRIPOS>ATOM
       1 C1         0.8551   -4.1710   11.4249 C.3       1 <0>        -0.1394 
       2 C2         0.2640   -4.0707   12.8282 C.3       1 <0>        -0.1416 
       3 C3        -0.7816   -2.9816   12.8564 C.2       1 <0>         0.5168 
       4 O1        -1.9467   -3.2538   13.1416 O.2       1 <0>        -0.5327 
       5 N1        -0.4424   -1.7273   12.5728 N.am      1 <0>        -0.7288 
       6 C4        -1.4603   -0.6671   12.6003 C.3       1 <0>         0.1281 
       7 C5        -2.3127   -0.7568   11.3571 C.2       1 <0>         0.4647 
       8 O2        -3.4726   -1.0305   11.4455 O.2       1 <0>        -0.5000 
       9 O3        -1.7642   -0.5277   10.1451 O.3       1 <0>        -0.3169 
      10 C6        -2.6108   -0.6241    8.9967 C.3       1 <0>         0.0729 
      11 C7        -3.1910   -2.0327    8.9081 C.3       1 <0>        -0.1704 
      12 C8        -1.8054   -0.3333    7.7529 C.2       1 <0>         0.5166 
      13 O4        -0.5995   -0.1071    7.8390 O.2       1 <0>        -0.4890 
      14 N2        -2.4004   -0.3220    6.5635 N.am      1 <0>        -0.6633 
      15 C9        -1.6471   -0.0499    5.3971 C.ar      1 <0>         0.1513 
      16 C10       -0.2555    0.0636    5.4988 C.ar      1 <0>        -0.1318 
      17 C11        0.5399    0.3317    4.3782 C.ar      1 <0>        -0.0823 
      18 C12       -0.1301    0.4787    3.1578 C.ar      1 <0>         0.0206 
      19 C13       -1.5217    0.3577    3.0659 C.ar      1 <0>         0.0545 
      20 C14       -2.3289    0.0917    4.1784 C.ar      1 <0>        -0.1051 
      21 O5        -1.9479    0.6240    1.7665 O.3       1 <0>        -0.2879 
      22 C15       -0.6920    0.4235    1.1132 C.3       1 <0>         0.2651 
      23 O6         0.4332    0.7408    1.9367 O.3       1 <0>        -0.2965 
      24 C16       -0.5713    1.3036   -0.1790 C.3       1 <0>        -0.1489 
      25 C17       -1.2140    0.6006   -1.3889 C.3       1 <0>        -0.1151 
      26 C18       -0.4204   -0.6646   -1.7644 C.3       1 <0>        -0.1246 
      27 C19        0.2182   -1.3051   -0.5179 C.3       1 <0>        -0.1168 
      28 C20       -0.6360   -1.0700    0.7417 C.3       1 <0>        -0.1129 
      29 H1         1.3241   -3.2252   11.1612 H         1 <0>         0.0628 
      30 H2         1.5990   -4.9644   11.4013 H         1 <0>         0.0629 
      31 H3         0.0628   -4.3943   10.7135 H         1 <0>         0.0642 
      32 H4         1.0532   -3.8334   13.5386 H         1 <0>         0.0966 
      33 H5        -0.1944   -5.0198   13.0980 H         1 <0>         0.0967 
      34 H6         0.5141   -1.5026   12.3386 H         1 <0>         0.4129 
      35 H7        -2.0888   -0.7895   13.4798 H         1 <0>         0.1177 
      36 H8        -0.9720    0.3046   12.6351 H         1 <0>         0.1174 
      37 H9        -3.4205    0.0977    9.0805 H         1 <0>         0.1170 
      38 H10       -2.3800   -2.7545    8.8369 H         1 <0>         0.0784 
      39 H11       -3.7823   -2.2373    9.7982 H         1 <0>         0.0805 
      40 H12       -3.8236   -2.1089    8.0262 H         1 <0>         0.0845 
      41 H13       -3.3905   -0.5078    6.4927 H         1 <0>         0.4164 
      42 H14        0.2191   -0.0593    6.4611 H         1 <0>         0.1427 
      43 H15        1.6136    0.4191    4.4550 H         1 <0>         0.1415 
      44 H16       -3.4009    0.0010    4.0839 H         1 <0>         0.1512 
      45 H17       -1.0480    2.2685   -0.0198 H         1 <0>         0.0736 
      46 H18        0.4826    1.4875   -0.3774 H         1 <0>         0.0900 
      47 H19       -1.2281    1.2799   -2.2386 H         1 <0>         0.0715 
      48 H20       -2.2427    0.3320   -1.1580 H         1 <0>         0.0728 
      49 H21       -1.0877   -1.3843   -2.2339 H         1 <0>         0.0706 
      50 H22        0.3566   -0.4121   -2.4829 H         1 <0>         0.0661 
      51 H23        1.2059   -0.8765   -0.3618 H         1 <0>         0.0735 
      52 H24        0.3401   -2.3741   -0.6802 H         1 <0>         0.0762 
      53 H25       -1.6486   -1.4264    0.5652 H         1 <0>         0.0928 
      54 H26       -0.2228   -1.6393    1.5716 H         1 <0>         0.0829 
@<TRIPOS>BOND
       1        1        2 1        
       2        1       29 1        
       3        1       30 1        
       4        1       31 1        
       5        2        3 1        
       6        2       32 1        
       7        2       33 1        
       8        3        4 2        
       9        3        5 am       
      10        5        6 1        
      11        5       34 1        
      12        6        7 1        
      13        6       35 1        
      14        6       36 1        
      15        7        8 2        
      16        7        9 1        
      17        9       10 1        
      18       10       11 1        
      19       10       12 1        
      20       10       37 1        
      21       11       38 1        
      22       11       39 1        
      23       11       40 1        
      24       12       13 2        
      25       12       14 am       
      26       14       15 1        
      27       14       41 1        
      28       15       20 ar       
      29       15       16 ar       
      30       16       17 ar       
      31       16       42 1        
      32       17       18 ar       
      33       17       43 1        
      34       18       23 1        
      35       18       19 ar       
      36       19       20 ar       
      37       19       21 1        
      38       20       44 1        
      39       21       22 1        
      40       22       28 1        
      41       22       23 1        
      42       22       24 1        
      43       24       25 1        
      44       24       45 1        
      45       24       46 1        
      46       25       26 1        
      47       25       47 1        
      48       25       48 1        
      49       26       27 1        
      50       26       49 1        
      51       26       50 1        
      52       27       28 1        
      53       27       51 1        
      54       27       52 1        
      55       28       53 1        
      56       28       54 1        

