#        1GCZ_R01_S0001_C0000_L00012_S0001_C0035_G0010_E0001.mol2
#        Tue Jun  6 09:59:05 2017
#        Descriptor:     15    33    20    10     7    12
#        Energy - RMSD - RMSD MassCentre:     -69.5487    999.9999    999.9999
#        Receptor:       1  Surface Point:     1  Conformer:     0
#        Ligand:        12  Surface Point:     1  Conformer:    35
#        BUDE Formal Charge: 0
#        ATOM Count: 54
#        Heavy ATOM Count: 28
@<TRIPOS>MOLECULE
ZINC61282011_1GCZ_R01_S0001_C0000_L00012_S0001_C0035_G0010_E0001
 54 56 0 0 0
SMALL
USER_CHARGES
@<TRIPOS>ATOM
       1 C1         4.3901   -5.8357    9.5940 C.3       1 <0>        -0.1394 
       2 C2         3.6363   -4.8055    8.7579 C.3       1 <0>        -0.1416 
       3 C3         4.5551   -4.2514    7.6954 C.2       1 <0>         0.5168 
       4 O1         5.7161   -4.6498    7.6163 O.2       1 <0>        -0.5327 
       5 N1         4.1088   -3.3319    6.8443 N.am      1 <0>        -0.7288 
       6 C4         2.7213   -2.8559    6.9387 C.3       1 <0>         0.1281 
       7 C5         2.5970   -1.8964    8.0981 C.2       1 <0>         0.4647 
       8 O2         1.9198   -2.1814    9.0405 O.2       1 <0>        -0.5000 
       9 O3         3.2514   -0.7160    8.0700 O.3       1 <0>        -0.3169 
      10 C6         4.0498   -0.4190    6.9214 C.3       1 <0>         0.0729 
      11 C7         4.7554    0.9190    7.1236 C.3       1 <0>        -0.1704 
      12 C8         3.1643   -0.3405    5.7008 C.2       1 <0>         0.5166 
      13 O4         3.3691   -1.0840    4.7426 O.2       1 <0>        -0.4890 
      14 N2         2.1622    0.5330    5.6617 N.am      1 <0>        -0.6633 
      15 C9         1.3315    0.6076    4.5187 C.ar      1 <0>         0.1513 
      16 C10        0.2541    1.5015    4.5196 C.ar      1 <0>        -0.1318 
      17 C11       -0.6003    1.6174    3.4167 C.ar      1 <0>        -0.0823 
      18 C12       -0.3186    0.7948    2.3195 C.ar      1 <0>         0.0206 
      19 C13        0.7649   -0.0916    2.3264 C.ar      1 <0>         0.0545 
      20 C14        1.6258   -0.2189    3.4230 C.ar      1 <0>        -0.1051 
      21 O5         0.7817   -0.8478    1.1564 O.3       1 <0>        -0.2879 
      22 C15       -0.0466    0.0103    0.3675 C.3       1 <0>         0.2651 
      23 O6        -1.0094    0.7348    1.1378 O.3       1 <0>        -0.2965 
      24 C16       -0.7449   -0.8907   -0.6968 C.3       1 <0>        -0.1489 
      25 C17       -0.9878   -0.1110   -2.0023 C.3       1 <0>        -0.1151 
      26 C18        0.3497    0.2377   -2.6814 C.3       1 <0>        -0.1246 
      27 C19        1.4616    0.4442   -1.6360 C.3       1 <0>        -0.1168 
      28 C20        0.9028    1.0108   -0.3176 C.3       1 <0>        -0.1129 
      29 H1         5.2399   -5.3580   10.0773 H         1 <0>         0.0628 
      30 H2         3.7243   -6.2446   10.3510 H         1 <0>         0.0629 
      31 H3         4.7428   -6.6377    8.9488 H         1 <0>         0.0642 
      32 H4         3.2954   -3.9959    9.3998 H         1 <0>         0.0966 
      33 H5         2.7791   -5.2792    8.2839 H         1 <0>         0.0967 
      34 H6         4.7225   -2.9606    6.1333 H         1 <0>         0.4129 
      35 H7         2.4483   -2.3468    6.0168 H         1 <0>         0.1177 
      36 H8         2.0565   -3.7025    7.0966 H         1 <0>         0.1174 
      37 H9         4.7909   -1.2030    6.7812 H         1 <0>         0.1170 
      38 H10        4.0135    1.7001    7.2760 H         1 <0>         0.0784 
      39 H11        5.4035    0.8583    7.9952 H         1 <0>         0.0805 
      40 H12        5.3512    1.1506    6.2432 H         1 <0>         0.0845 
      41 H13        1.9940    1.1435    6.4484 H         1 <0>         0.4164 
      42 H14        0.0756    2.1182    5.3880 H         1 <0>         0.1427 
      43 H15       -1.4318    2.3067    3.4157 H         1 <0>         0.1415 
      44 H16        2.4566   -0.9086    3.4059 H         1 <0>         0.1512 
      45 H17       -0.1365   -1.7689   -0.9020 H         1 <0>         0.0736 
      46 H18       -1.6939   -1.2368   -0.2929 H         1 <0>         0.0900 
      47 H19       -1.5278    0.8074   -1.7820 H         1 <0>         0.0715 
      48 H20       -1.5983   -0.7040   -2.6800 H         1 <0>         0.0728 
      49 H21        0.6358   -0.5691   -3.3529 H         1 <0>         0.0706 
      50 H22        0.2360    1.1419   -3.2758 H         1 <0>         0.0661 
      51 H23        2.2022    1.1351   -2.0333 H         1 <0>         0.0735 
      52 H24        1.9595   -0.5037   -1.4422 H         1 <0>         0.0762 
      53 H25        1.7251    1.2345    0.3586 H         1 <0>         0.0928 
      54 H26        0.3741    1.9404   -0.5174 H         1 <0>         0.0829 
@<TRIPOS>BOND
       1        1        2 1        
       2        1       29 1        
       3        1       30 1        
       4        1       31 1        
       5        2        3 1        
       6        2       32 1        
       7        2       33 1        
       8        3        4 2        
       9        3        5 am       
      10        5        6 1        
      11        5       34 1        
      12        6        7 1        
      13        6       35 1        
      14        6       36 1        
      15        7        8 2        
      16        7        9 1        
      17        9       10 1        
      18       10       11 1        
      19       10       12 1        
      20       10       37 1        
      21       11       38 1        
      22       11       39 1        
      23       11       40 1        
      24       12       13 2        
      25       12       14 am       
      26       14       15 1        
      27       14       41 1        
      28       15       20 ar       
      29       15       16 ar       
      30       16       17 ar       
      31       16       42 1        
      32       17       18 ar       
      33       17       43 1        
      34       18       23 1        
      35       18       19 ar       
      36       19       20 ar       
      37       19       21 1        
      38       20       44 1        
      39       21       22 1        
      40       22       28 1        
      41       22       23 1        
      42       22       24 1        
      43       24       25 1        
      44       24       45 1        
      45       24       46 1        
      46       25       26 1        
      47       25       47 1        
      48       25       48 1        
      49       26       27 1        
      50       26       49 1        
      51       26       50 1        
      52       27       28 1        
      53       27       51 1        
      54       27       52 1        
      55       28       53 1        
      56       28       54 1        

