#        1GCZ_R01_S0001_C0000_L00012_S0001_C0035_G0010_E0001.mol2
#        Tue Jun  6 14:14:07 2017
#        Descriptor:     34    22     8     9     8    13
#        Energy - RMSD - RMSD MassCentre:     -71.2701    999.9999    999.9999
#        Receptor:       1  Surface Point:     1  Conformer:     0
#        Ligand:        12  Surface Point:     1  Conformer:    35
#        BUDE Formal Charge: 0
#        ATOM Count: 54
#        Heavy ATOM Count: 28
@<TRIPOS>MOLECULE
ZINC61282011_1GCZ_R01_S0001_C0000_L00012_S0001_C0035_G0010_E0001
 54 56 0 0 0
SMALL
USER_CHARGES
@<TRIPOS>ATOM
       1 C1         5.2584   -1.7078   11.2721 C.3       1 <0>        -0.1394 
       2 C2         4.1500   -1.5873   10.2301 C.3       1 <0>        -0.1416 
       3 C3         4.4108   -0.3840    9.3560 C.2       1 <0>         0.5168 
       4 O1         5.4021    0.3170    9.5529 O.2       1 <0>        -0.5327 
       5 N1         3.5681   -0.0819    8.3724 N.am      1 <0>        -0.7288 
       6 C4         2.3835   -0.9197    8.1369 C.3       1 <0>         0.1281 
       7 C5         1.3353   -0.6120    9.1794 C.2       1 <0>         0.4647 
       8 O2         1.0154   -1.4480    9.9710 O.2       1 <0>        -0.5000 
       9 O3         0.7592    0.6083    9.2170 O.3       1 <0>        -0.3169 
      10 C6         1.1742    1.5760    8.2496 C.3       1 <0>         0.0729 
      11 C7         0.4594    2.8984    8.5126 C.3       1 <0>        -0.1704 
      12 C8         0.8262    1.0835    6.8651 C.2       1 <0>         0.5166 
      13 O4         1.7104    0.9397    6.0224 O.2       1 <0>        -0.4890 
      14 N2        -0.4372    0.8050    6.5569 N.am      1 <0>        -0.6633 
      15 C9        -0.7649    0.3434    5.2602 C.ar      1 <0>         0.1513 
      16 C10       -2.0943    0.0113    4.9735 C.ar      1 <0>        -0.1318 
      17 C11       -2.4757   -0.4503    3.7081 C.ar      1 <0>        -0.0823 
      18 C12       -1.4597   -0.5605    2.7513 C.ar      1 <0>         0.0206 
      19 C13       -0.1343   -0.2204    3.0464 C.ar      1 <0>         0.0545 
      20 C14        0.2611    0.2407    4.3077 C.ar      1 <0>        -0.1051 
      21 O5         0.6913   -0.4925    1.9576 O.3       1 <0>        -0.2879 
      22 C15       -0.3289   -0.5392    0.9568 C.3       1 <0>         0.2651 
      23 O6        -1.5930   -0.9847    1.4553 O.3       1 <0>        -0.2965 
      24 C16        0.1905   -1.4808   -0.1728 C.3       1 <0>        -0.1489 
      25 C17       -0.3442   -1.0368   -1.5470 C.3       1 <0>        -0.1151 
      26 C18        0.2510    0.3267   -1.9447 C.3       1 <0>        -0.1246 
      27 C19        0.5284    1.1913   -0.7007 C.3       1 <0>        -0.1168 
      28 C20       -0.4771    0.8998    0.4287 C.3       1 <0>        -0.1129 
      29 H1         5.2684   -0.8155   11.8947 H         1 <0>         0.0628 
      30 H2         5.0776   -2.5823   11.8934 H         1 <0>         0.0629 
      31 H3         6.2179   -1.8110   10.7698 H         1 <0>         0.0642 
      32 H4         3.1915   -1.4698   10.7313 H         1 <0>         0.0966 
      33 H5         4.1309   -2.4844    9.6148 H         1 <0>         0.0967 
      34 H6         3.7416    0.7228    7.7871 H         1 <0>         0.4129 
      35 H7         1.9820   -0.7114    7.1475 H         1 <0>         0.1177 
      36 H8         2.6620   -1.9694    8.2023 H         1 <0>         0.1174 
      37 H9         2.2496    1.7238    8.3215 H         1 <0>         0.1170 
      38 H10       -0.6163    2.7467    8.4526 H         1 <0>         0.0784 
      39 H11        0.7206    3.2599    9.5048 H         1 <0>         0.0805 
      40 H12        0.7652    3.6297    7.7673 H         1 <0>         0.0845 
      41 H13       -1.1633    0.9231    7.2489 H         1 <0>         0.4164 
      42 H14       -2.8456    0.1137    5.7425 H         1 <0>         0.1427 
      43 H15       -3.5010   -0.7066    3.4852 H         1 <0>         0.1415 
      44 H16        1.2895    0.4987    4.5128 H         1 <0>         0.1512 
      45 H17        1.2783   -1.4852   -0.1867 H         1 <0>         0.0736 
      46 H18       -0.1386   -2.4957    0.0396 H         1 <0>         0.0900 
      47 H19       -1.4284   -0.9562   -1.5063 H         1 <0>         0.0715 
      48 H20       -0.0918   -1.7798   -2.3005 H         1 <0>         0.0728 
      49 H21        1.1814    0.1713   -2.4867 H         1 <0>         0.0706 
      50 H22       -0.4367    0.8498   -2.6059 H         1 <0>         0.0661 
      51 H23        0.4606    2.2424   -0.9734 H         1 <0>         0.0735 
      52 H24        1.5393    1.0032   -0.3450 H         1 <0>         0.0762 
      53 H25       -0.3120    1.5942    1.2496 H         1 <0>         0.0928 
      54 H26       -1.4896    1.0533    0.0615 H         1 <0>         0.0829 
@<TRIPOS>BOND
       1        1        2 1        
       2        1       29 1        
       3        1       30 1        
       4        1       31 1        
       5        2        3 1        
       6        2       32 1        
       7        2       33 1        
       8        3        4 2        
       9        3        5 am       
      10        5        6 1        
      11        5       34 1        
      12        6        7 1        
      13        6       35 1        
      14        6       36 1        
      15        7        8 2        
      16        7        9 1        
      17        9       10 1        
      18       10       11 1        
      19       10       12 1        
      20       10       37 1        
      21       11       38 1        
      22       11       39 1        
      23       11       40 1        
      24       12       13 2        
      25       12       14 am       
      26       14       15 1        
      27       14       41 1        
      28       15       20 ar       
      29       15       16 ar       
      30       16       17 ar       
      31       16       42 1        
      32       17       18 ar       
      33       17       43 1        
      34       18       23 1        
      35       18       19 ar       
      36       19       20 ar       
      37       19       21 1        
      38       20       44 1        
      39       21       22 1        
      40       22       28 1        
      41       22       23 1        
      42       22       24 1        
      43       24       25 1        
      44       24       45 1        
      45       24       46 1        
      46       25       26 1        
      47       25       47 1        
      48       25       48 1        
      49       26       27 1        
      50       26       49 1        
      51       26       50 1        
      52       27       28 1        
      53       27       51 1        
      54       27       52 1        
      55       28       53 1        
      56       28       54 1        

