#        1GCZ_R01_S0001_C0000_L00012_S0001_C0036_G0010_E0001.mol2
#        Tue Jun  6 09:59:06 2017
#        Descriptor:     22    30    22     7     8    11
#        Energy - RMSD - RMSD MassCentre:     -77.7188    999.9999    999.9999
#        Receptor:       1  Surface Point:     1  Conformer:     0
#        Ligand:        12  Surface Point:     1  Conformer:    36
#        BUDE Formal Charge: 0
#        ATOM Count: 54
#        Heavy ATOM Count: 28
@<TRIPOS>MOLECULE
ZINC61282011_1GCZ_R01_S0001_C0000_L00012_S0001_C0036_G0010_E0001
 54 56 0 0 0
SMALL
USER_CHARGES
@<TRIPOS>ATOM
       1 C1        -4.1417   -2.8021    7.8880 C.3       1 <0>        -0.1394 
       2 C2        -3.9552   -2.6002    9.3891 C.3       1 <0>        -0.1416 
       3 C3        -2.7997   -1.6584    9.6296 C.2       1 <0>         0.5168 
       4 O1        -2.9851   -0.5935   10.2166 O.2       1 <0>        -0.5327 
       5 N1        -1.5806   -1.9806    9.2067 N.am      1 <0>        -0.7288 
       6 C4        -0.4558   -1.0638    9.4410 C.3       1 <0>         0.1281 
       7 C5        -0.5316    0.0846    8.4634 C.2       1 <0>         0.4647 
       8 O2        -0.7256    1.1953    8.8591 O.2       1 <0>        -0.5000 
       9 O3        -0.3803   -0.1437    7.1415 O.3       1 <0>        -0.3169 
      10 C6        -0.4601    0.9749    6.2543 C.3       1 <0>         0.0729 
      11 C7        -1.8298    1.6342    6.3872 C.3       1 <0>        -0.1704 
      12 C8        -0.2652    0.5037    4.8329 C.2       1 <0>         0.5166 
      13 O4        -0.1156   -0.6940    4.5962 O.2       1 <0>        -0.4890 
      14 N2        -0.2553    1.3843    3.8363 N.am      1 <0>        -0.6633 
      15 C9        -0.0729    0.9444    2.5039 C.ar      1 <0>         0.1513 
      16 C10       -0.0475   -0.4302    2.2404 C.ar      1 <0>        -0.1318 
      17 C11        0.1297   -0.9224    0.9417 C.ar      1 <0>        -0.0823 
      18 C12        0.2787    0.0313   -0.0723 C.ar      1 <0>         0.0206 
      19 C13        0.2460    1.4038    0.2010 C.ar      1 <0>         0.0545 
      20 C14        0.0715    1.9092    1.4948 C.ar      1 <0>        -0.1051 
      21 O5         0.4953    2.1361   -0.9576 O.3       1 <0>        -0.2879 
      22 C15        0.1909    1.1046   -1.8998 C.3       1 <0>         0.2651 
      23 O6         0.4617   -0.2108   -1.4084 O.3       1 <0>        -0.2965 
      24 C16        1.0090    1.2893   -3.1648 C.3       1 <0>        -0.1489 
      25 C17        0.7566    0.1892   -4.2123 C.3       1 <0>        -0.1151 
      26 C18       -0.7001   -0.3048   -4.1385 C.3       1 <0>        -0.1246 
      27 C19       -1.6373    0.8137   -3.6461 C.3       1 <0>        -0.1168 
      28 C20       -1.3148    1.2281   -2.1985 C.3       1 <0>        -0.1129 
      29 H1        -3.2381   -3.2379    7.4664 H         1 <0>         0.0628 
      30 H2        -4.9825   -3.4703    7.7143 H         1 <0>         0.0629 
      31 H3        -4.3367   -1.8419    7.4150 H         1 <0>         0.0642 
      32 H4        -3.7461   -3.5579    9.8611 H         1 <0>         0.0966 
      33 H5        -4.8625   -2.1761    9.8140 H         1 <0>         0.0967 
      34 H6        -1.4271   -2.8548    8.7247 H         1 <0>         0.4129 
      35 H7        -0.5068   -0.6783   10.4570 H         1 <0>         0.1177 
      36 H8         0.4825   -1.5967    9.3014 H         1 <0>         0.1174 
      37 H9         0.3156    1.6949    6.5065 H         1 <0>         0.1170 
      38 H10       -2.6052    0.9097    6.1468 H         1 <0>         0.0784 
      39 H11       -1.9649    1.9856    7.4080 H         1 <0>         0.0805 
      40 H12       -1.8944    2.4764    5.7015 H         1 <0>         0.0845 
      41 H13       -0.3782    2.3677    4.0306 H         1 <0>         0.4164 
      42 H14       -0.1683   -1.1300    3.0541 H         1 <0>         0.1427 
      43 H15        0.1492   -1.9825    0.7367 H         1 <0>         0.1415 
      44 H16        0.0479    2.9725    1.6824 H         1 <0>         0.1512 
      45 H17        0.7830    2.2630   -3.5941 H         1 <0>         0.0736 
      46 H18        2.0590    1.2924   -2.8800 H         1 <0>         0.0900 
      47 H19        1.4282   -0.6471   -4.0300 H         1 <0>         0.0715 
      48 H20        0.9627    0.5727   -5.2095 H         1 <0>         0.0728 
      49 H21       -1.0217   -0.6321   -5.1251 H         1 <0>         0.0706 
      50 H22       -0.7660   -1.1577   -3.4663 H         1 <0>         0.0661 
      51 H23       -2.6668    0.4647   -3.6943 H         1 <0>         0.0735 
      52 H24       -1.5472    1.6784   -4.3005 H         1 <0>         0.0762 
      53 H25       -1.6212    2.2597   -2.0395 H         1 <0>         0.0928 
      54 H26       -1.8782    0.6036   -1.5083 H         1 <0>         0.0829 
@<TRIPOS>BOND
       1        1        2 1        
       2        1       29 1        
       3        1       30 1        
       4        1       31 1        
       5        2        3 1        
       6        2       32 1        
       7        2       33 1        
       8        3        4 2        
       9        3        5 am       
      10        5        6 1        
      11        5       34 1        
      12        6        7 1        
      13        6       35 1        
      14        6       36 1        
      15        7        8 2        
      16        7        9 1        
      17        9       10 1        
      18       10       11 1        
      19       10       12 1        
      20       10       37 1        
      21       11       38 1        
      22       11       39 1        
      23       11       40 1        
      24       12       13 2        
      25       12       14 am       
      26       14       15 1        
      27       14       41 1        
      28       15       20 ar       
      29       15       16 ar       
      30       16       17 ar       
      31       16       42 1        
      32       17       18 ar       
      33       17       43 1        
      34       18       23 1        
      35       18       19 ar       
      36       19       20 ar       
      37       19       21 1        
      38       20       44 1        
      39       21       22 1        
      40       22       28 1        
      41       22       23 1        
      42       22       24 1        
      43       24       25 1        
      44       24       45 1        
      45       24       46 1        
      46       25       26 1        
      47       25       47 1        
      48       25       48 1        
      49       26       27 1        
      50       26       49 1        
      51       26       50 1        
      52       27       28 1        
      53       27       51 1        
      54       27       52 1        
      55       28       53 1        
      56       28       54 1        

