#        1GCZ_R01_S0001_C0000_L00012_S0001_C0036_G0010_E0001.mol2
#        Tue Jun  6 14:14:09 2017
#        Descriptor:     36    31    16    14     9    13
#        Energy - RMSD - RMSD MassCentre:     -62.1843    999.9999    999.9999
#        Receptor:       1  Surface Point:     1  Conformer:     0
#        Ligand:        12  Surface Point:     1  Conformer:    36
#        BUDE Formal Charge: 0
#        ATOM Count: 54
#        Heavy ATOM Count: 28
@<TRIPOS>MOLECULE
ZINC61282011_1GCZ_R01_S0001_C0000_L00012_S0001_C0036_G0010_E0001
 54 56 0 0 0
SMALL
USER_CHARGES
@<TRIPOS>ATOM
       1 C1        11.9562    3.1002    3.6858 C.3       1 <0>        -0.1394 
       2 C2        13.2275    2.9610    4.5184 C.3       1 <0>        -0.1416 
       3 C3        12.8964    2.2982    5.8341 C.2       1 <0>         0.5168 
       4 O1        13.4190    1.2252    6.1318 O.2       1 <0>        -0.5327 
       5 N1        12.0393    2.8750    6.6716 N.am      1 <0>        -0.7288 
       6 C4        11.7170    2.2297    7.9525 C.3       1 <0>         0.1281 
       7 C5        10.7662    1.0817    7.7115 C.2       1 <0>         0.4647 
       8 O2        11.1147   -0.0400    7.9311 O.2       1 <0>        -0.5000 
       9 O3         9.5216    1.3227    7.2474 O.3       1 <0>        -0.3169 
      10 C6         8.6568    0.2039    7.0346 C.3       1 <0>         0.0729 
      11 C7         9.2847   -0.7380    6.0113 C.3       1 <0>        -0.1704 
      12 C8         7.3238    0.6903    6.5182 C.2       1 <0>         0.5166 
      13 O4         7.1451    1.8889    6.3079 O.2       1 <0>        -0.4890 
      14 N2         6.3424   -0.1779    6.2906 N.am      1 <0>        -0.6633 
      15 C9         5.0928    0.2762    5.8066 C.ar      1 <0>         0.1513 
      16 C10        4.9548    1.6200    5.4390 C.ar      1 <0>        -0.1318 
      17 C11        3.7423    2.1243    4.9538 C.ar      1 <0>        -0.0823 
      18 C12        2.6821    1.2152    4.8571 C.ar      1 <0>         0.0206 
      19 C13        2.8320   -0.1280    5.2218 C.ar      1 <0>         0.0545 
      20 C14        4.0381   -0.6448    5.7101 C.ar      1 <0>        -0.1051 
      21 O5         1.6174   -0.8009    5.1085 O.3       1 <0>        -0.2879 
      22 C15        0.9699    0.1281    4.2356 C.3       1 <0>         0.2651 
      23 O6         1.4127    1.4764    4.4124 O.3       1 <0>        -0.2965 
      24 C16       -0.5295    0.1130    4.4700 C.3       1 <0>        -0.1489 
      25 C17       -1.2885    1.1192    3.5853 C.3       1 <0>        -0.1151 
      26 C18       -0.5849    1.2826    2.2252 C.3       1 <0>        -0.1246 
      27 C19        0.1550   -0.0084    1.8285 C.3       1 <0>        -0.1168 
      28 C20        1.3047   -0.3257    2.8026 C.3       1 <0>        -0.1129 
      29 H1        11.2387    3.7187    4.2213 H         1 <0>         0.0628 
      30 H2        12.1969    3.5659    2.7325 H         1 <0>         0.0629 
      31 H3        11.5280    2.1154    3.5114 H         1 <0>         0.0642 
      32 H4        13.6489    3.9465    4.7054 H         1 <0>         0.0966 
      33 H5        13.9505    2.3532    3.9785 H         1 <0>         0.0967 
      34 H6        11.6097    3.7561    6.4283 H         1 <0>         0.4129 
      35 H7        12.6298    1.8539    8.4098 H         1 <0>         0.1177 
      36 H8        11.2495    2.9537    8.6166 H         1 <0>         0.1174 
      37 H9         8.5099   -0.3257    7.9735 H         1 <0>         0.1170 
      38 H10        9.4426   -0.2039    5.0766 H         1 <0>         0.0784 
      39 H11       10.2389   -1.0990    6.3891 H         1 <0>         0.0805 
      40 H12        8.6193   -1.5817    5.8396 H         1 <0>         0.0845 
      41 H13        6.4891   -1.1621    6.4633 H         1 <0>         0.4164 
      42 H14        5.8008    2.2854    5.5288 H         1 <0>         0.1427 
      43 H15        3.6344    3.1606    4.6695 H         1 <0>         0.1415 
      44 H16        4.1316   -1.6852    5.9842 H         1 <0>         0.1512 
      45 H17       -0.9065   -0.8913    4.2892 H         1 <0>         0.0736 
      46 H18       -0.7008    0.3433    5.5194 H         1 <0>         0.0900 
      47 H19       -1.3296    2.0844    4.0857 H         1 <0>         0.0715 
      48 H20       -2.3103    0.7790    3.4299 H         1 <0>         0.0728 
      49 H21       -1.3232    1.5204    1.4621 H         1 <0>         0.0706 
      50 H22        0.1224    2.1079    2.2735 H         1 <0>         0.0661 
      51 H23        0.5610    0.1059    0.8256 H         1 <0>         0.0735 
      52 H24       -0.5470   -0.8396    1.8116 H         1 <0>         0.0762 
      53 H25        1.4906   -1.3976    2.8078 H         1 <0>         0.0928 
      54 H26        2.2134    0.1678    2.4643 H         1 <0>         0.0829 
@<TRIPOS>BOND
       1        1        2 1        
       2        1       29 1        
       3        1       30 1        
       4        1       31 1        
       5        2        3 1        
       6        2       32 1        
       7        2       33 1        
       8        3        4 2        
       9        3        5 am       
      10        5        6 1        
      11        5       34 1        
      12        6        7 1        
      13        6       35 1        
      14        6       36 1        
      15        7        8 2        
      16        7        9 1        
      17        9       10 1        
      18       10       11 1        
      19       10       12 1        
      20       10       37 1        
      21       11       38 1        
      22       11       39 1        
      23       11       40 1        
      24       12       13 2        
      25       12       14 am       
      26       14       15 1        
      27       14       41 1        
      28       15       20 ar       
      29       15       16 ar       
      30       16       17 ar       
      31       16       42 1        
      32       17       18 ar       
      33       17       43 1        
      34       18       23 1        
      35       18       19 ar       
      36       19       20 ar       
      37       19       21 1        
      38       20       44 1        
      39       21       22 1        
      40       22       28 1        
      41       22       23 1        
      42       22       24 1        
      43       24       25 1        
      44       24       45 1        
      45       24       46 1        
      46       25       26 1        
      47       25       47 1        
      48       25       48 1        
      49       26       27 1        
      50       26       49 1        
      51       26       50 1        
      52       27       28 1        
      53       27       51 1        
      54       27       52 1        
      55       28       53 1        
      56       28       54 1        

