#        1GCZ_R01_S0001_C0000_L00012_S0001_C0037_G0010_E0001.mol2
#        Tue Jun  6 14:14:11 2017
#        Descriptor:     33    23     4     9     7    13
#        Energy - RMSD - RMSD MassCentre:     -69.7283    999.9999    999.9999
#        Receptor:       1  Surface Point:     1  Conformer:     0
#        Ligand:        12  Surface Point:     1  Conformer:    37
#        BUDE Formal Charge: 0
#        ATOM Count: 54
#        Heavy ATOM Count: 28
@<TRIPOS>MOLECULE
ZINC61282011_1GCZ_R01_S0001_C0000_L00012_S0001_C0037_G0010_E0001
 54 56 0 0 0
SMALL
USER_CHARGES
@<TRIPOS>ATOM
       1 C1         3.6484   -6.0316   10.4319 C.3       1 <0>        -0.1394 
       2 C2         2.8232   -5.1237    9.5245 C.3       1 <0>        -0.1416 
       3 C3         3.7268   -4.0960    8.8862 C.2       1 <0>         0.5168 
       4 O1         4.9307   -4.0929    9.1384 O.2       1 <0>        -0.5327 
       5 N1         3.2207   -3.1934    8.0506 N.am      1 <0>        -0.7288 
       6 C4         1.7821   -3.1972    7.7490 C.3       1 <0>         0.1281 
       7 C5         1.0236   -2.6012    8.9108 C.2       1 <0>         0.4647 
       8 O2         0.2717   -3.2793    9.5453 O.2       1 <0>        -0.5000 
       9 O3         1.1952   -1.3015    9.2327 O.3       1 <0>        -0.3169 
      10 C6         2.1053   -0.5298    8.4448 C.3       1 <0>         0.0729 
      11 C7         2.2060    0.8809    9.0180 C.3       1 <0>        -0.1704 
      12 C8         1.6034   -0.4593    7.0223 C.2       1 <0>         0.5166 
      13 O4         2.3041   -0.8749    6.1008 O.2       1 <0>        -0.4890 
      14 N2         0.4029    0.0523    6.7657 N.am      1 <0>        -0.6633 
      15 C9        -0.0688    0.1188    5.4334 C.ar      1 <0>         0.1513 
      16 C10       -1.3546    0.6175    5.1926 C.ar      1 <0>        -0.1318 
      17 C11       -1.8728    0.7062    3.8951 C.ar      1 <0>        -0.0823 
      18 C12       -1.0385    0.2714    2.8584 C.ar      1 <0>         0.0206 
      19 C13        0.2479   -0.2201    3.1094 C.ar      1 <0>         0.0545 
      20 C14        0.7777   -0.3160    4.4017 C.ar      1 <0>        -0.1051 
      21 O5         0.8401   -0.6583    1.9269 O.3       1 <0>        -0.2879 
      22 C15       -0.0026    0.0569    1.0198 C.3       1 <0>         0.2651 
      23 O6        -1.3266    0.2646    1.5189 O.3       1 <0>        -0.2965 
      24 C16       -0.1293   -0.7006   -0.2892 C.3       1 <0>        -0.1489 
      25 C17       -1.0546   -0.0027   -1.3030 C.3       1 <0>        -0.1151 
      26 C18       -0.9751    1.5271   -1.1447 C.3       1 <0>        -0.1246 
      27 C19        0.4089    1.9563   -0.6232 C.3       1 <0>        -0.1168 
      28 C20        0.6698    1.4245    0.7982 C.3       1 <0>        -0.1129 
      29 H1         4.1124   -5.4356   11.2151 H         1 <0>         0.0628 
      30 H2         2.9995   -6.7803   10.8815 H         1 <0>         0.0629 
      31 H3         4.4204   -6.5249    9.8452 H         1 <0>         0.0642 
      32 H4         2.0597   -4.6190   10.1128 H         1 <0>         0.0966 
      33 H5         2.3485   -5.7203    8.7482 H         1 <0>         0.0967 
      34 H6         3.8242   -2.5056    7.6231 H         1 <0>         0.4129 
      35 H7         1.5968   -2.6063    6.8545 H         1 <0>         0.1177 
      36 H8         1.4479   -4.2194    7.5846 H         1 <0>         0.1174 
      37 H9         3.0868   -0.9988    8.4595 H         1 <0>         0.1170 
      38 H10        1.2217    1.3444    9.0142 H         1 <0>         0.0784 
      39 H11        2.5803    0.8312   10.0383 H         1 <0>         0.0805 
      40 H12        2.8879    1.4712    8.4093 H         1 <0>         0.0845 
      41 H13       -0.1724    0.3935    7.5224 H         1 <0>         0.4164 
      42 H14       -1.9628    0.9433    6.0234 H         1 <0>         0.1427 
      43 H15       -2.8645    1.0910    3.7076 H         1 <0>         0.1415 
      44 H16        1.7737   -0.6974    4.5719 H         1 <0>         0.1512 
      45 H17        0.8605   -0.8271   -0.7227 H         1 <0>         0.0736 
      46 H18       -0.5156   -1.6915   -0.0598 H         1 <0>         0.0900 
      47 H19       -2.0805   -0.3267   -1.1417 H         1 <0>         0.0715 
      48 H20       -0.7711   -0.2806   -2.3161 H         1 <0>         0.0728 
      49 H21       -1.1570    2.0006   -2.1072 H         1 <0>         0.0706 
      50 H22       -1.7455    1.8664   -0.4553 H         1 <0>         0.0661 
      51 H23        0.4654    3.0429   -0.6114 H         1 <0>         0.0735 
      52 H24        1.1811    1.5894   -1.2962 H         1 <0>         0.0762 
      53 H25        1.7411    1.3190    0.9552 H         1 <0>         0.0928 
      54 H26        0.2956    2.1399    1.5276 H         1 <0>         0.0829 
@<TRIPOS>BOND
       1        1        2 1        
       2        1       29 1        
       3        1       30 1        
       4        1       31 1        
       5        2        3 1        
       6        2       32 1        
       7        2       33 1        
       8        3        4 2        
       9        3        5 am       
      10        5        6 1        
      11        5       34 1        
      12        6        7 1        
      13        6       35 1        
      14        6       36 1        
      15        7        8 2        
      16        7        9 1        
      17        9       10 1        
      18       10       11 1        
      19       10       12 1        
      20       10       37 1        
      21       11       38 1        
      22       11       39 1        
      23       11       40 1        
      24       12       13 2        
      25       12       14 am       
      26       14       15 1        
      27       14       41 1        
      28       15       20 ar       
      29       15       16 ar       
      30       16       17 ar       
      31       16       42 1        
      32       17       18 ar       
      33       17       43 1        
      34       18       23 1        
      35       18       19 ar       
      36       19       20 ar       
      37       19       21 1        
      38       20       44 1        
      39       21       22 1        
      40       22       28 1        
      41       22       23 1        
      42       22       24 1        
      43       24       25 1        
      44       24       45 1        
      45       24       46 1        
      46       25       26 1        
      47       25       47 1        
      48       25       48 1        
      49       26       27 1        
      50       26       49 1        
      51       26       50 1        
      52       27       28 1        
      53       27       51 1        
      54       27       52 1        
      55       28       53 1        
      56       28       54 1        

