#        1GCZ_R01_S0001_C0000_L00012_S0001_C0038_G0010_E0001.mol2
#        Tue Jun  6 09:59:08 2017
#        Descriptor:     20    20    16    12    10    14
#        Energy - RMSD - RMSD MassCentre:     -60.2947    999.9999    999.9999
#        Receptor:       1  Surface Point:     1  Conformer:     0
#        Ligand:        12  Surface Point:     1  Conformer:    38
#        BUDE Formal Charge: 0
#        ATOM Count: 54
#        Heavy ATOM Count: 28
@<TRIPOS>MOLECULE
ZINC61282011_1GCZ_R01_S0001_C0000_L00012_S0001_C0038_G0010_E0001
 54 56 0 0 0
SMALL
USER_CHARGES
@<TRIPOS>ATOM
       1 C1         2.6353    4.4707    8.2759 C.3       1 <0>        -0.1394 
       2 C2         1.3263    5.2377    8.4405 C.3       1 <0>        -0.1416 
       3 C3         0.1996    4.4479    7.8184 C.2       1 <0>         0.5168 
       4 O1        -0.4476    4.9263    6.8884 O.2       1 <0>        -0.5327 
       5 N1        -0.0929    3.2340    8.2766 N.am      1 <0>        -0.7288 
       6 C4        -1.1897    2.4652    7.6711 C.3       1 <0>         0.1281 
       7 C5        -0.7344    1.8966    6.3484 C.2       1 <0>         0.4647 
       8 O2        -0.6407    0.7139    6.2060 O.2       1 <0>        -0.5000 
       9 O3        -0.4329    2.7251    5.3261 O.3       1 <0>        -0.3169 
      10 C6        -0.0062    2.1407    4.0927 C.3       1 <0>         0.0729 
      11 C7        -1.0732    1.1716    3.5918 C.3       1 <0>        -0.1704 
      12 C8         1.2878    1.3938    4.3118 C.2       1 <0>         0.5166 
      13 O4         1.3556    0.1920    4.0588 O.2       1 <0>        -0.4890 
      14 N2         2.3549    2.0358    4.7786 N.am      1 <0>        -0.6633 
      15 C9         3.5681    1.3374    4.9843 C.ar      1 <0>         0.1513 
      16 C10        3.6667    0.0077    4.5577 C.ar      1 <0>        -0.1318 
      17 C11        4.8423   -0.7316    4.7352 C.ar      1 <0>        -0.0823 
      18 C12        5.9072   -0.0708    5.3590 C.ar      1 <0>         0.0206 
      19 C13        5.8003    1.2611    5.7766 C.ar      1 <0>         0.0545 
      20 C14        4.6304    2.0110    5.6070 C.ar      1 <0>        -0.1051 
      21 O5         6.9617    1.6585    6.4354 O.3       1 <0>        -0.2879 
      22 C15        7.8244    0.6390    5.9247 C.3       1 <0>         0.2651 
      23 O6         7.1460   -0.5864    5.6361 O.3       1 <0>        -0.2965 
      24 C16        8.9985    0.3713    6.9982 C.3       1 <0>        -0.1489 
      25 C17        9.8252    1.6493    7.2315 C.3       1 <0>        -0.1151 
      26 C18       10.4004    2.1722    5.9021 C.3       1 <0>        -0.1246 
      27 C19        9.2763    2.4538    4.8879 C.3       1 <0>        -0.1168 
      28 C20        8.4245    1.1987    4.6217 C.3       1 <0>        -0.1129 
      29 H1         2.8439    4.3336    7.2170 H         1 <0>         0.0628 
      30 H2         3.4449    5.0336    8.7357 H         1 <0>         0.0629 
      31 H3         2.5487    3.4992    8.7580 H         1 <0>         0.0642 
      32 H4         1.4069    6.2038    7.9466 H         1 <0>         0.0966 
      33 H5         1.1229    5.3865    9.4988 H         1 <0>         0.0967 
      34 H6         0.4380    2.8402    9.0402 H         1 <0>         0.4129 
      35 H7        -1.4738    1.6522    8.3360 H         1 <0>         0.1177 
      36 H8        -2.0450    3.1179    7.5095 H         1 <0>         0.1174 
      37 H9         0.1487    2.9240    3.3538 H         1 <0>         0.1170 
      38 H10       -1.2362    0.3958    4.3369 H         1 <0>         0.0784 
      39 H11       -2.0018    1.7123    3.4213 H         1 <0>         0.0805 
      40 H12       -0.7412    0.7172    2.6608 H         1 <0>         0.0845 
      41 H13        2.2993    3.0226    4.9863 H         1 <0>         0.4164 
      42 H14        2.8197   -0.4614    4.0793 H         1 <0>         0.1427 
      43 H15        4.9200   -1.7574    4.4063 H         1 <0>         0.1415 
      44 H16        4.5707    3.0380    5.9358 H         1 <0>         0.1512 
      45 H17        8.5763    0.0304    7.9411 H         1 <0>         0.0736 
      46 H18        9.6433   -0.4207    6.6227 H         1 <0>         0.0900 
      47 H19       10.6433    1.4331    7.9154 H         1 <0>         0.0715 
      48 H20        9.2018    2.4159    7.6870 H         1 <0>         0.0728 
      49 H21       10.9556    3.0900    6.0841 H         1 <0>         0.0706 
      50 H22       11.0911    1.4413    5.4870 H         1 <0>         0.0661 
      51 H23        9.7159    2.7894    3.9509 H         1 <0>         0.0735 
      52 H24        8.6395    3.2525    5.2627 H         1 <0>         0.0762 
      53 H25        7.6142    1.4480    3.9401 H         1 <0>         0.0928 
      54 H26        9.0387    0.4381    4.1442 H         1 <0>         0.0829 
@<TRIPOS>BOND
       1        1        2 1        
       2        1       29 1        
       3        1       30 1        
       4        1       31 1        
       5        2        3 1        
       6        2       32 1        
       7        2       33 1        
       8        3        4 2        
       9        3        5 am       
      10        5        6 1        
      11        5       34 1        
      12        6        7 1        
      13        6       35 1        
      14        6       36 1        
      15        7        8 2        
      16        7        9 1        
      17        9       10 1        
      18       10       11 1        
      19       10       12 1        
      20       10       37 1        
      21       11       38 1        
      22       11       39 1        
      23       11       40 1        
      24       12       13 2        
      25       12       14 am       
      26       14       15 1        
      27       14       41 1        
      28       15       20 ar       
      29       15       16 ar       
      30       16       17 ar       
      31       16       42 1        
      32       17       18 ar       
      33       17       43 1        
      34       18       23 1        
      35       18       19 ar       
      36       19       20 ar       
      37       19       21 1        
      38       20       44 1        
      39       21       22 1        
      40       22       28 1        
      41       22       23 1        
      42       22       24 1        
      43       24       25 1        
      44       24       45 1        
      45       24       46 1        
      46       25       26 1        
      47       25       47 1        
      48       25       48 1        
      49       26       27 1        
      50       26       49 1        
      51       26       50 1        
      52       27       28 1        
      53       27       51 1        
      54       27       52 1        
      55       28       53 1        
      56       28       54 1        

