#        1GCZ_R01_S0001_C0000_L00012_S0001_C0038_G0010_E0001.mol2
#        Tue Jun  6 14:14:13 2017
#        Descriptor:      7    24     1     8     9    13
#        Energy - RMSD - RMSD MassCentre:     -73.2592    999.9999    999.9999
#        Receptor:       1  Surface Point:     1  Conformer:     0
#        Ligand:        12  Surface Point:     1  Conformer:    38
#        BUDE Formal Charge: 0
#        ATOM Count: 54
#        Heavy ATOM Count: 28
@<TRIPOS>MOLECULE
ZINC61282011_1GCZ_R01_S0001_C0000_L00012_S0001_C0038_G0010_E0001
 54 56 0 0 0
SMALL
USER_CHARGES
@<TRIPOS>ATOM
       1 C1         3.3338    1.7010    6.2415 C.3       1 <0>        -0.1394 
       2 C2         3.9576    2.2659    7.5144 C.3       1 <0>        -0.1416 
       3 C3         3.0250    2.0300    8.6784 C.2       1 <0>         0.5168 
       4 O1         2.5739    2.9845    9.3093 O.2       1 <0>        -0.5327 
       5 N1         2.6910    0.7891    9.0214 N.am      1 <0>        -0.7288 
       6 C4         1.7832    0.5595   10.1544 C.3       1 <0>         0.1281 
       7 C5         0.3657    0.8637    9.7322 C.2       1 <0>         0.4647 
       8 O2        -0.4472   -0.0110    9.6916 O.2       1 <0>        -0.5000 
       9 O3         0.0167    2.1249    9.4006 O.3       1 <0>        -0.3169 
      10 C6        -1.3370    2.3648    9.0071 C.3       1 <0>         0.0729 
      11 C7        -2.2788    1.9108   10.1187 C.3       1 <0>        -0.1704 
      12 C8        -1.6383    1.5907    7.7460 C.2       1 <0>         0.5166 
      13 O4        -2.5511    0.7664    7.7326 O.2       1 <0>        -0.4890 
      14 N2        -0.9162    1.8005    6.6490 N.am      1 <0>        -0.6633 
      15 C9        -1.1974    1.0762    5.4665 C.ar      1 <0>         0.1513 
      16 C10       -2.3267    0.2496    5.4290 C.ar      1 <0>        -0.1318 
      17 C11       -2.6536   -0.4899    4.2860 C.ar      1 <0>        -0.0823 
      18 C12       -1.7935   -0.3572    3.1895 C.ar      1 <0>         0.0206 
      19 C13       -0.6699    0.4765    3.2353 C.ar      1 <0>         0.0545 
      20 C14       -0.3305    1.2198    4.3720 C.ar      1 <0>        -0.1051 
      21 O5         0.0608    0.3727    2.0537 O.3       1 <0>        -0.2879 
      22 C15       -0.9776   -0.1783    1.2397 C.3       1 <0>         0.2651 
      23 O6        -1.9103   -0.9767    1.9730 O.3       1 <0>        -0.2965 
      24 C16       -0.3029   -1.0640    0.0722 C.3       1 <0>        -0.1489 
      25 C17        0.6116   -0.1953   -0.8112 C.3       1 <0>        -0.1151 
      26 C18       -0.1737    0.9909   -1.4011 C.3       1 <0>        -0.1246 
      27 C19       -0.7939    1.8514   -0.2846 C.3       1 <0>        -0.1168 
      28 C20       -1.7206    1.0213    0.6231 C.3       1 <0>        -0.1129 
      29 H1         2.3906    2.2065    6.0452 H         1 <0>         0.0628 
      30 H2         4.0115    1.8592    5.4052 H         1 <0>         0.0629 
      31 H3         3.1554    0.6352    6.3679 H         1 <0>         0.0642 
      32 H4         4.1234    3.3345    7.3943 H         1 <0>         0.0966 
      33 H5         4.9069    1.7700    7.7050 H         1 <0>         0.0967 
      34 H6         3.0608    0.0045    8.5039 H         1 <0>         0.4129 
      35 H7         1.8518   -0.4795   10.4702 H         1 <0>         0.1177 
      36 H8         2.0622    1.2094   10.9811 H         1 <0>         0.1174 
      37 H9        -1.4788    3.4274    8.8222 H         1 <0>         0.1170 
      38 H10       -2.1272    0.8508   10.3113 H         1 <0>         0.0784 
      39 H11       -2.0706    2.4778   11.0235 H         1 <0>         0.0805 
      40 H12       -3.3088    2.0807    9.8124 H         1 <0>         0.0845 
      41 H13       -0.1668    2.4773    6.6599 H         1 <0>         0.4164 
      42 H14       -2.9633    0.1794    6.2986 H         1 <0>         0.1427 
      43 H15       -3.5246   -1.1277    4.2554 H         1 <0>         0.1415 
      44 H16        0.5406    1.8581    4.3845 H         1 <0>         0.1512 
      45 H17        0.2722   -1.8806    0.5036 H         1 <0>         0.0736 
      46 H18       -1.0915   -1.5036   -0.5349 H         1 <0>         0.0900 
      47 H19        1.0125   -0.7986   -1.6230 H         1 <0>         0.0715 
      48 H20        1.4493    0.1761   -0.2248 H         1 <0>         0.0728 
      49 H21        0.4958    1.6075   -1.9972 H         1 <0>         0.0706 
      50 H22       -0.9600    0.6224   -2.0565 H         1 <0>         0.0661 
      51 H23       -1.3678    2.6597   -0.7331 H         1 <0>         0.0735 
      52 H24       -0.0020    2.2966    0.3143 H         1 <0>         0.0762 
      53 H25       -2.1004    1.6498    1.4257 H         1 <0>         0.0928 
      54 H26       -2.5724    0.6679    0.0458 H         1 <0>         0.0829 
@<TRIPOS>BOND
       1        1        2 1        
       2        1       29 1        
       3        1       30 1        
       4        1       31 1        
       5        2        3 1        
       6        2       32 1        
       7        2       33 1        
       8        3        4 2        
       9        3        5 am       
      10        5        6 1        
      11        5       34 1        
      12        6        7 1        
      13        6       35 1        
      14        6       36 1        
      15        7        8 2        
      16        7        9 1        
      17        9       10 1        
      18       10       11 1        
      19       10       12 1        
      20       10       37 1        
      21       11       38 1        
      22       11       39 1        
      23       11       40 1        
      24       12       13 2        
      25       12       14 am       
      26       14       15 1        
      27       14       41 1        
      28       15       20 ar       
      29       15       16 ar       
      30       16       17 ar       
      31       16       42 1        
      32       17       18 ar       
      33       17       43 1        
      34       18       23 1        
      35       18       19 ar       
      36       19       20 ar       
      37       19       21 1        
      38       20       44 1        
      39       21       22 1        
      40       22       28 1        
      41       22       23 1        
      42       22       24 1        
      43       24       25 1        
      44       24       45 1        
      45       24       46 1        
      46       25       26 1        
      47       25       47 1        
      48       25       48 1        
      49       26       27 1        
      50       26       49 1        
      51       26       50 1        
      52       27       28 1        
      53       27       51 1        
      54       27       52 1        
      55       28       53 1        
      56       28       54 1        

