#        1GCZ_R01_S0001_C0000_L00012_S0001_C0039_G0010_E0001.mol2
#        Tue Jun  6 09:59:09 2017
#        Descriptor:     22    29    17     6     9    13
#        Energy - RMSD - RMSD MassCentre:     -73.8429    999.9999    999.9999
#        Receptor:       1  Surface Point:     1  Conformer:     0
#        Ligand:        12  Surface Point:     1  Conformer:    39
#        BUDE Formal Charge: 0
#        ATOM Count: 54
#        Heavy ATOM Count: 28
@<TRIPOS>MOLECULE
ZINC61282011_1GCZ_R01_S0001_C0000_L00012_S0001_C0039_G0010_E0001
 54 56 0 0 0
SMALL
USER_CHARGES
@<TRIPOS>ATOM
       1 C1        -6.0519    3.3996   11.8337 C.3       1 <0>        -0.1394 
       2 C2        -5.1504    2.1825   11.6473 C.3       1 <0>        -0.1416 
       3 C3        -5.8725    1.1443   10.8220 C.2       1 <0>         0.5168 
       4 O1        -7.0134    1.3631   10.4182 O.2       1 <0>        -0.5327 
       5 N1        -5.2743   -0.0075   10.5317 N.am      1 <0>        -0.7288 
       6 C4        -3.9107   -0.2690   11.0144 C.3       1 <0>         0.1281 
       7 C5        -2.9227    0.4996   10.1697 C.2       1 <0>         0.4647 
       8 O2        -2.2727    1.3756   10.6576 O.2       1 <0>        -0.5000 
       9 O3        -2.7738    0.1970    8.8626 O.3       1 <0>        -0.3169 
      10 C6        -1.8263    0.9521    8.1031 C.3       1 <0>         0.0729 
      11 C7        -2.2152    2.4276    8.1254 C.3       1 <0>        -0.1704 
      12 C8        -1.8166    0.4567    6.6767 C.2       1 <0>         0.5166 
      13 O4        -2.5876   -0.4366    6.3298 O.2       1 <0>        -0.4890 
      14 N2        -0.9738    0.9866    5.7948 N.am      1 <0>        -0.6633 
      15 C9        -0.9636    0.5236    4.4578 C.ar      1 <0>         0.1513 
      16 C10       -1.9423   -0.3897    4.0482 C.ar      1 <0>        -0.1318 
      17 C11       -1.9806   -0.8814    2.7379 C.ar      1 <0>        -0.0823 
      18 C12       -0.9918   -0.4113    1.8656 C.ar      1 <0>         0.0206 
      19 C13       -0.0209    0.5066    2.2836 C.ar      1 <0>         0.0545 
      20 C14        0.0299    1.0046    3.5910 C.ar      1 <0>        -0.1051 
      21 O5         0.8886    0.7531    1.2575 O.3       1 <0>        -0.2879 
      22 C15        0.0772    0.2925    0.1740 C.3       1 <0>         0.2651 
      23 O6        -0.8309   -0.7473    0.5471 O.3       1 <0>        -0.2965 
      24 C16        0.9530   -0.2691   -0.9993 C.3       1 <0>        -0.1489 
      25 C17        1.4111    0.8624   -1.9380 C.3       1 <0>        -0.1151 
      26 C18        0.2061    1.4744   -2.6763 C.3       1 <0>        -0.1246 
      27 C19       -1.0632    1.4122   -1.8065 C.3       1 <0>        -0.1168 
      28 C20       -0.7289    1.5134   -0.3067 C.3       1 <0>        -0.1129 
      29 H1        -6.9584    3.1021   12.3567 H         1 <0>         0.0628 
      30 H2        -5.5268    4.1530   12.4172 H         1 <0>         0.0629 
      31 H3        -6.3120    3.8100   10.8603 H         1 <0>         0.0642 
      32 H4        -4.9011    1.7628   12.6196 H         1 <0>         0.0966 
      33 H5        -4.2380    2.4812   11.1355 H         1 <0>         0.0967 
      34 H6        -5.7562   -0.7027    9.9799 H         1 <0>         0.4129 
      35 H7        -3.8250    0.0491   12.0513 H         1 <0>         0.1177 
      36 H8        -3.6975   -1.3335   10.9422 H         1 <0>         0.1174 
      37 H9        -0.8351    0.8311    8.5350 H         1 <0>         0.1170 
      38 H10       -3.2115    2.5458    7.7047 H         1 <0>         0.0784 
      39 H11       -2.2092    2.7880    9.1519 H         1 <0>         0.0805 
      40 H12       -1.5015    2.9990    7.5355 H         1 <0>         0.0845 
      41 H13       -0.3408    1.7201    6.0796 H         1 <0>         0.4164 
      42 H14       -2.6871   -0.7238    4.7554 H         1 <0>         0.1427 
      43 H15       -2.7352   -1.5857    2.4203 H         1 <0>         0.1415 
      44 H16        0.7873    1.7136    3.8913 H         1 <0>         0.1512 
      45 H17        1.8215   -0.7895   -0.6014 H         1 <0>         0.0736 
      46 H18        0.3638   -0.9940   -1.5570 H         1 <0>         0.0900 
      47 H19        2.1149    0.4670   -2.6672 H         1 <0>         0.0715 
      48 H20        1.9204    1.6351   -1.3660 H         1 <0>         0.0728 
      49 H21        0.4210    2.5124   -2.9214 H         1 <0>         0.0706 
      50 H22        0.0355    0.9401   -3.6086 H         1 <0>         0.0661 
      51 H23       -1.5785    0.4723   -1.9925 H         1 <0>         0.0735 
      52 H24       -1.7349    2.2218   -2.0847 H         1 <0>         0.0762 
      53 H25       -0.1455    2.4135   -0.1248 H         1 <0>         0.0928 
      54 H26       -1.6506    1.5931    0.2658 H         1 <0>         0.0829 
@<TRIPOS>BOND
       1        1        2 1        
       2        1       29 1        
       3        1       30 1        
       4        1       31 1        
       5        2        3 1        
       6        2       32 1        
       7        2       33 1        
       8        3        4 2        
       9        3        5 am       
      10        5        6 1        
      11        5       34 1        
      12        6        7 1        
      13        6       35 1        
      14        6       36 1        
      15        7        8 2        
      16        7        9 1        
      17        9       10 1        
      18       10       11 1        
      19       10       12 1        
      20       10       37 1        
      21       11       38 1        
      22       11       39 1        
      23       11       40 1        
      24       12       13 2        
      25       12       14 am       
      26       14       15 1        
      27       14       41 1        
      28       15       20 ar       
      29       15       16 ar       
      30       16       17 ar       
      31       16       42 1        
      32       17       18 ar       
      33       17       43 1        
      34       18       23 1        
      35       18       19 ar       
      36       19       20 ar       
      37       19       21 1        
      38       20       44 1        
      39       21       22 1        
      40       22       28 1        
      41       22       23 1        
      42       22       24 1        
      43       24       25 1        
      44       24       45 1        
      45       24       46 1        
      46       25       26 1        
      47       25       47 1        
      48       25       48 1        
      49       26       27 1        
      50       26       49 1        
      51       26       50 1        
      52       27       28 1        
      53       27       51 1        
      54       27       52 1        
      55       28       53 1        
      56       28       54 1        

