#        1GCZ_R01_S0001_C0000_L00012_S0001_C0039_G0010_E0001.mol2
#        Tue Jun  6 14:14:15 2017
#        Descriptor:     22    29    10     8    10    12
#        Energy - RMSD - RMSD MassCentre:     -79.1784    999.9999    999.9999
#        Receptor:       1  Surface Point:     1  Conformer:     0
#        Ligand:        12  Surface Point:     1  Conformer:    39
#        BUDE Formal Charge: 0
#        ATOM Count: 54
#        Heavy ATOM Count: 28
@<TRIPOS>MOLECULE
ZINC61282011_1GCZ_R01_S0001_C0000_L00012_S0001_C0039_G0010_E0001
 54 56 0 0 0
SMALL
USER_CHARGES
@<TRIPOS>ATOM
       1 C1         0.8691    6.6283   10.8337 C.3       1 <0>        -0.1394 
       2 C2         0.0337    5.3649   10.6473 C.3       1 <0>        -0.1416 
       3 C3        -1.1889    5.6883    9.8220 C.2       1 <0>         0.5168 
       4 O1        -1.3735    6.8353    9.4182 O.2       1 <0>        -0.5327 
       5 N1        -2.0666    4.7322    9.5317 N.am      1 <0>        -0.7288 
       6 C4        -1.8459    3.3614   10.0144 C.3       1 <0>         0.1281 
       7 C5        -0.7858    2.6959    9.1697 C.2       1 <0>         0.4647 
       8 O2         0.2597    2.3847    9.6576 O.2       1 <0>        -0.5000 
       9 O3        -1.0193    2.4525    7.8626 O.3       1 <0>        -0.3169 
      10 C6         0.0144    1.8204    7.1031 C.3       1 <0>         0.0729 
      11 C7         1.2679    2.6904    7.1254 C.3       1 <0>        -0.1704 
      12 C8        -0.4478    1.6418    5.6767 C.2       1 <0>         0.5166 
      13 O4        -1.5510    2.0608    5.3298 O.2       1 <0>        -0.4890 
      14 N2         0.3384    1.0312    4.7948 N.am      1 <0>        -0.6633 
      15 C9        -0.0932    0.8632    3.4578 C.ar      1 <0>         0.1513 
      16 C10       -1.2862    1.4704    3.0482 C.ar      1 <0>        -0.1318 
      17 C11       -1.7613    1.3383    1.7379 C.ar      1 <0>        -0.0823 
      18 C12       -0.9813    0.5699    0.8656 C.ar      1 <0>         0.0206 
      19 C13        0.2132   -0.0285    1.2836 C.ar      1 <0>         0.0545 
      20 C14        0.6986    0.0941    2.5910 C.ar      1 <0>        -0.1051 
      21 O5         0.7559   -0.7988    0.2575 O.3       1 <0>        -0.2879 
      22 C15        0.0456   -0.1939   -0.8260 C.3       1 <0>         0.2651 
      23 O6        -1.2421    0.3038   -0.4529 O.3       1 <0>        -0.2965 
      24 C16       -0.1826   -1.2089   -1.9993 C.3       1 <0>        -0.1489 
      25 C17        1.0373   -1.2524   -2.9380 C.3       1 <0>        -0.1151 
      26 C18        1.2003    0.0892   -3.6763 C.3       1 <0>        -0.1246 
      27 C19        0.7078    1.2607   -2.8065 C.3       1 <0>        -0.1168 
      28 C20        0.9172    0.9812   -1.3067 C.3       1 <0>        -0.1129 
      29 H1         0.2794    7.3783   11.3567 H         1 <0>         0.0628 
      30 H2         1.7567    6.3925   11.4172 H         1 <0>         0.0629 
      31 H3         1.1657    7.0131    9.8603 H         1 <0>         0.0642 
      32 H4        -0.2754    4.9871   11.6196 H         1 <0>         0.0966 
      33 H5         0.6264    4.6096   10.1355 H         1 <0>         0.0967 
      34 H6        -2.8847    4.9473    8.9799 H         1 <0>         0.4129 
      35 H7        -1.5178    3.3897   11.0513 H         1 <0>         0.1177 
      36 H8        -2.7733    2.7971    9.9422 H         1 <0>         0.1174 
      37 H9         0.2397    0.8476    7.5350 H         1 <0>         0.1170 
      38 H10        1.0382    3.6671    6.7047 H         1 <0>         0.0784 
      39 H11        1.6086    2.8081    8.1519 H         1 <0>         0.0805 
      40 H12        2.0490    2.2153    6.5355 H         1 <0>         0.0845 
      41 H13        1.2442    0.6871    5.0796 H         1 <0>         0.4164 
      42 H14       -1.8549    2.0561    3.7554 H         1 <0>         0.1427 
      43 H15       -2.6813    1.8065    1.4203 H         1 <0>         0.1415 
      44 H16        1.6238   -0.3751    2.8913 H         1 <0>         0.1512 
      45 H17       -0.3745   -2.2031   -1.6014 H         1 <0>         0.0736 
      46 H18       -1.0653   -0.9032   -2.5570 H         1 <0>         0.0900 
      47 H19        0.9065   -2.0491   -3.6672 H         1 <0>         0.0715 
      48 H20        1.9377   -1.4668   -2.3660 H         1 <0>         0.0728 
      49 H21        2.2492    0.2423   -3.9214 H         1 <0>         0.0706 
      50 H22        0.6398    0.0668   -4.6086 H         1 <0>         0.0661 
      51 H23       -0.3517    1.4235   -2.9925 H         1 <0>         0.0735 
      52 H24        1.2388    2.1688   -3.0847 H         1 <0>         0.0762 
      53 H25        1.9625    0.7408   -1.1248 H         1 <0>         0.0928 
      54 H26        0.6768    1.8745   -0.7342 H         1 <0>         0.0829 
@<TRIPOS>BOND
       1        1        2 1        
       2        1       29 1        
       3        1       30 1        
       4        1       31 1        
       5        2        3 1        
       6        2       32 1        
       7        2       33 1        
       8        3        4 2        
       9        3        5 am       
      10        5        6 1        
      11        5       34 1        
      12        6        7 1        
      13        6       35 1        
      14        6       36 1        
      15        7        8 2        
      16        7        9 1        
      17        9       10 1        
      18       10       11 1        
      19       10       12 1        
      20       10       37 1        
      21       11       38 1        
      22       11       39 1        
      23       11       40 1        
      24       12       13 2        
      25       12       14 am       
      26       14       15 1        
      27       14       41 1        
      28       15       20 ar       
      29       15       16 ar       
      30       16       17 ar       
      31       16       42 1        
      32       17       18 ar       
      33       17       43 1        
      34       18       23 1        
      35       18       19 ar       
      36       19       20 ar       
      37       19       21 1        
      38       20       44 1        
      39       21       22 1        
      40       22       28 1        
      41       22       23 1        
      42       22       24 1        
      43       24       25 1        
      44       24       45 1        
      45       24       46 1        
      46       25       26 1        
      47       25       47 1        
      48       25       48 1        
      49       26       27 1        
      50       26       49 1        
      51       26       50 1        
      52       27       28 1        
      53       27       51 1        
      54       27       52 1        
      55       28       53 1        
      56       28       54 1        

