#        1GCZ_R01_S0001_C0000_L00012_S0001_C0040_G0010_E0001.mol2
#        Tue Jun  6 09:59:10 2017
#        Descriptor:     21    29     8     8    10    12
#        Energy - RMSD - RMSD MassCentre:     -82.5813    999.9999    999.9999
#        Receptor:       1  Surface Point:     1  Conformer:     0
#        Ligand:        12  Surface Point:     1  Conformer:    40
#        BUDE Formal Charge: 0
#        ATOM Count: 54
#        Heavy ATOM Count: 28
@<TRIPOS>MOLECULE
ZINC61282011_1GCZ_R01_S0001_C0000_L00012_S0001_C0040_G0010_E0001
 54 56 0 0 0
SMALL
USER_CHARGES
@<TRIPOS>ATOM
       1 C1         1.4901    6.3147   10.8973 C.3       1 <0>        -0.1394 
       2 C2         0.4493    5.2253   10.6547 C.3       1 <0>        -0.1416 
       3 C3        -0.6418    5.7634    9.7602 C.2       1 <0>         0.5168 
       4 O1        -0.5882    6.9225    9.3524 O.2       1 <0>        -0.5327 
       5 N1        -1.6616    4.9834    9.4130 N.am      1 <0>        -0.7288 
       6 C4        -1.7256    3.5980    9.9004 C.3       1 <0>         0.1281 
       7 C5        -0.7576    2.7444    9.1165 C.2       1 <0>         0.4647 
       8 O2         0.1821    2.2490    9.6638 O.2       1 <0>        -0.5000 
       9 O3        -0.9539    2.5408    7.7965 O.3       1 <0>        -0.3169 
      10 C6        -0.0108    1.7254    7.0962 C.3       1 <0>         0.0729 
      11 C7         1.3777    2.3503    7.1976 C.3       1 <0>        -0.1704 
      12 C8        -0.4125    1.6269    5.6439 C.2       1 <0>         0.5166 
      13 O4        -1.3973    2.2396    5.2345 O.2       1 <0>        -0.4890 
      14 N2         0.2991    0.8773    4.8069 N.am      1 <0>        -0.6633 
      15 C9        -0.0760    0.7841    3.4457 C.ar      1 <0>         0.1513 
      16 C10       -1.1106    1.5980    2.9694 C.ar      1 <0>        -0.1318 
      17 C11       -1.5233    1.5483    1.6325 C.ar      1 <0>        -0.0823 
      18 C12       -0.8475    0.6448    0.8038 C.ar      1 <0>         0.0206 
      19 C13        0.1898   -0.1606    1.2886 C.ar      1 <0>         0.0545 
      20 C14        0.6110   -0.1221    2.6232 C.ar      1 <0>        -0.1051 
      21 O5         0.6416   -1.0232    0.2923 O.3       1 <0>        -0.2879 
      22 C15        0.1202   -0.3040   -0.8281 C.3       1 <0>         0.2651 
      23 O6        -1.0740    0.4239   -0.5293 O.3       1 <0>        -0.2965 
      24 C16       -0.2075   -1.2598   -1.9606 C.3       1 <0>        -0.1489 
      25 C17       -0.8088   -0.5546   -3.1903 C.3       1 <0>        -0.1151 
      26 C18       -0.2262    0.8631   -3.3400 C.3       1 <0>        -0.1246 
      27 C19        1.2025    0.9352   -2.7696 C.3       1 <0>        -0.1168 
      28 C20        1.2198    0.6882   -1.2497 C.3       1 <0>        -0.1129 
      29 H1         1.0184    7.1632   11.3886 H         1 <0>         0.0628 
      30 H2         2.2830    5.9230   11.5311 H         1 <0>         0.0629 
      31 H3         1.9097    6.6330    9.9454 H         1 <0>         0.0642 
      32 H4         0.0189    4.9161   11.6049 H         1 <0>         0.0966 
      33 H5         0.9224    4.3712   10.1748 H         1 <0>         0.0967 
      34 H6        -2.3920    5.3421    8.8148 H         1 <0>         0.4129 
      35 H7        -1.4599    3.5712   10.9551 H         1 <0>         0.1177 
      36 H8        -2.7350    3.2133    9.7702 H         1 <0>         0.1174 
      37 H9         0.0059    0.7301    7.5353 H         1 <0>         0.1170 
      38 H10        1.3568    3.3502    6.7694 H         1 <0>         0.0784 
      39 H11        1.6727    2.4089    8.2432 H         1 <0>         0.0805 
      40 H12        2.0917    1.7364    6.6525 H         1 <0>         0.0845 
      41 H13        1.1077    0.3742    5.1430 H         1 <0>         0.4164 
      42 H14       -1.6029    2.2821    3.6448 H         1 <0>         0.1427 
      43 H15       -2.3210    2.1758    1.2634 H         1 <0>         0.1415 
      44 H16        1.4148   -0.7518    2.9753 H         1 <0>         0.1512 
      45 H17        0.6970   -1.7914   -2.2487 H         1 <0>         0.0736 
      46 H18       -0.9116   -1.9952   -1.5772 H         1 <0>         0.0900 
      47 H19       -1.8890   -0.4881   -3.0791 H         1 <0>         0.0715 
      48 H20       -0.5997   -1.1326   -4.0881 H         1 <0>         0.0728 
      49 H21       -0.2048    1.1362   -4.3931 H         1 <0>         0.0706 
      50 H22       -0.8617    1.5787   -2.8227 H         1 <0>         0.0661 
      51 H23        1.6198    1.9190   -2.9739 H         1 <0>         0.0735 
      52 H24        1.8299    0.1971   -3.2651 H         1 <0>         0.0762 
      53 H25        2.1874    0.2850   -0.9586 H         1 <0>         0.0928 
      54 H26        1.0821    1.6324   -0.7271 H         1 <0>         0.0829 
@<TRIPOS>BOND
       1        1        2 1        
       2        1       29 1        
       3        1       30 1        
       4        1       31 1        
       5        2        3 1        
       6        2       32 1        
       7        2       33 1        
       8        3        4 2        
       9        3        5 am       
      10        5        6 1        
      11        5       34 1        
      12        6        7 1        
      13        6       35 1        
      14        6       36 1        
      15        7        8 2        
      16        7        9 1        
      17        9       10 1        
      18       10       11 1        
      19       10       12 1        
      20       10       37 1        
      21       11       38 1        
      22       11       39 1        
      23       11       40 1        
      24       12       13 2        
      25       12       14 am       
      26       14       15 1        
      27       14       41 1        
      28       15       20 ar       
      29       15       16 ar       
      30       16       17 ar       
      31       16       42 1        
      32       17       18 ar       
      33       17       43 1        
      34       18       23 1        
      35       18       19 ar       
      36       19       20 ar       
      37       19       21 1        
      38       20       44 1        
      39       21       22 1        
      40       22       28 1        
      41       22       23 1        
      42       22       24 1        
      43       24       25 1        
      44       24       45 1        
      45       24       46 1        
      46       25       26 1        
      47       25       47 1        
      48       25       48 1        
      49       26       27 1        
      50       26       49 1        
      51       26       50 1        
      52       27       28 1        
      53       27       51 1        
      54       27       52 1        
      55       28       53 1        
      56       28       54 1        

