#        1GCZ_R01_S0001_C0000_L00012_S0001_C0040_G0010_E0001.mol2
#        Tue Jun  6 14:14:16 2017
#        Descriptor:     20    29    12     6     9    14
#        Energy - RMSD - RMSD MassCentre:     -76.1249    999.9999    999.9999
#        Receptor:       1  Surface Point:     1  Conformer:     0
#        Ligand:        12  Surface Point:     1  Conformer:    40
#        BUDE Formal Charge: 0
#        ATOM Count: 54
#        Heavy ATOM Count: 28
@<TRIPOS>MOLECULE
ZINC61282011_1GCZ_R01_S0001_C0000_L00012_S0001_C0040_G0010_E0001
 54 56 0 0 0
SMALL
USER_CHARGES
@<TRIPOS>ATOM
       1 C1        -4.6447    4.7050   12.9057 C.3       1 <0>        -0.1394 
       2 C2        -4.4820    3.2148   12.6200 C.3       1 <0>        -0.1416 
       3 C3        -5.5550    2.7680   11.6560 C.2       1 <0>         0.5168 
       4 O1        -6.3798    3.5771   11.2345 O.2       1 <0>        -0.5327 
       5 N1        -5.6082    1.4987   11.2625 N.am      1 <0>        -0.7288 
       6 C4        -4.6224    0.5317   11.7663 C.3       1 <0>         0.1281 
       7 C5        -3.3076    0.7365   11.0525 C.2       1 <0>         0.4647 
       8 O2        -2.3482    1.1080   11.6605 O.2       1 <0>        -0.5000 
       9 O3        -3.2158    0.5000    9.7266 O.3       1 <0>        -0.3169 
      10 C6        -1.9503    0.7080    9.0942 C.3       1 <0>         0.0729 
      11 C7        -1.5279    2.1642    9.2661 C.3       1 <0>        -0.1704 
      12 C8        -2.0652    0.3886    7.6228 C.2       1 <0>         0.5166 
      13 O4        -3.1497    0.0546    7.1481 O.2       1 <0>        -0.4890 
      14 N2        -0.9933    0.4685    6.8396 N.am      1 <0>        -0.6633 
      15 C9        -1.0995    0.1696    5.4607 C.ar      1 <0>         0.1513 
      16 C10       -2.3656   -0.0689    4.9133 C.ar      1 <0>        -0.1318 
      17 C11       -2.5304   -0.3689    3.5557 C.ar      1 <0>        -0.0823 
      18 C12       -1.3653   -0.4165    2.7811 C.ar      1 <0>         0.0206 
      19 C13       -0.1043   -0.1707    3.3371 C.ar      1 <0>         0.0545 
      20 C14        0.0747    0.1285    4.6929 C.ar      1 <0>        -0.1051 
      21 O5         0.8926   -0.3559    2.3816 O.3       1 <0>        -0.2879 
      22 C15        0.0631   -0.2451    1.2223 C.3       1 <0>         0.2651 
      23 O6        -1.2794   -0.6869    1.4407 O.3       1 <0>        -0.2965 
      24 C16        0.6312   -1.0774    0.0873 C.3       1 <0>        -0.1489 
      25 C17       -0.2343   -1.0325   -1.1855 C.3       1 <0>        -0.1151 
      26 C18       -0.9245    0.3373   -1.3228 C.3       1 <0>        -0.1246 
      27 C19       -0.0795    1.4483   -0.6721 C.3       1 <0>        -0.1168 
      28 C20        0.0448    1.2490    0.8498 C.3       1 <0>        -0.1129 
      29 H1        -5.6190    4.8830   13.3560 H         1 <0>         0.0628 
      30 H2        -3.8636    5.0297   13.5900 H         1 <0>         0.0629 
      31 H3        -4.5672    5.2626   11.9748 H         1 <0>         0.0642 
      32 H4        -4.5734    2.6548   13.5483 H         1 <0>         0.0966 
      33 H5        -3.5031    3.0337   12.1812 H         1 <0>         0.0967 
      34 H6        -6.3255    1.1987   10.6178 H         1 <0>         0.4129 
      35 H7        -4.4812    0.6799   12.8348 H         1 <0>         0.1177 
      36 H8        -4.9795   -0.4797   11.5840 H         1 <0>         0.1174 
      37 H9        -1.2057    0.0578    9.5486 H         1 <0>         0.1170 
      38 H10       -2.2793    2.8139    8.8222 H         1 <0>         0.0784 
      39 H11       -1.4320    2.3907   10.3259 H         1 <0>         0.0805 
      40 H12       -0.5716    2.3246    8.7724 H         1 <0>         0.0845 
      41 H13       -0.1029    0.7427    7.2294 H         1 <0>         0.4164 
      42 H14       -3.2376   -0.0198    5.5488 H         1 <0>         0.1427 
      43 H15       -3.5066   -0.5527    3.1319 H         1 <0>         0.1415 
      44 H16        1.0572    0.3161    5.1002 H         1 <0>         0.1512 
      45 H17        1.6360   -0.7278   -0.1401 H         1 <0>         0.0736 
      46 H18        0.7133   -2.1031    0.4406 H         1 <0>         0.0900 
      47 H19       -0.9916   -1.8121   -1.1377 H         1 <0>         0.0715 
      48 H20        0.3842   -1.2198   -2.0609 H         1 <0>         0.0728 
      49 H21       -1.0663    0.5670   -2.3769 H         1 <0>         0.0706 
      50 H22       -1.9056    0.3038   -0.8539 H         1 <0>         0.0661 
      51 H23       -0.5450    2.4122   -0.8670 H         1 <0>         0.0735 
      52 H24        0.9124    1.4603   -1.1195 H         1 <0>         0.0762 
      53 H25        0.9648    1.7104    1.2022 H         1 <0>         0.0928 
      54 H26       -0.7868    1.7416    1.3492 H         1 <0>         0.0829 
@<TRIPOS>BOND
       1        1        2 1        
       2        1       29 1        
       3        1       30 1        
       4        1       31 1        
       5        2        3 1        
       6        2       32 1        
       7        2       33 1        
       8        3        4 2        
       9        3        5 am       
      10        5        6 1        
      11        5       34 1        
      12        6        7 1        
      13        6       35 1        
      14        6       36 1        
      15        7        8 2        
      16        7        9 1        
      17        9       10 1        
      18       10       11 1        
      19       10       12 1        
      20       10       37 1        
      21       11       38 1        
      22       11       39 1        
      23       11       40 1        
      24       12       13 2        
      25       12       14 am       
      26       14       15 1        
      27       14       41 1        
      28       15       20 ar       
      29       15       16 ar       
      30       16       17 ar       
      31       16       42 1        
      32       17       18 ar       
      33       17       43 1        
      34       18       23 1        
      35       18       19 ar       
      36       19       20 ar       
      37       19       21 1        
      38       20       44 1        
      39       21       22 1        
      40       22       28 1        
      41       22       23 1        
      42       22       24 1        
      43       24       25 1        
      44       24       45 1        
      45       24       46 1        
      46       25       26 1        
      47       25       47 1        
      48       25       48 1        
      49       26       27 1        
      50       26       49 1        
      51       26       50 1        
      52       27       28 1        
      53       27       51 1        
      54       27       52 1        
      55       28       53 1        
      56       28       54 1        

