#        1GCZ_R01_S0001_C0000_L00003_S0001_C0021_G0010_E0001.mol2
#        Tue Jun  6 09:54:53 2017
#        Descriptor:      5    29    17    13     2    13
#        Energy - RMSD - RMSD MassCentre:     -57.3558    999.9999    999.9999
#        Receptor:       1  Surface Point:     1  Conformer:     0
#        Ligand:         3  Surface Point:     1  Conformer:    21
#        BUDE Formal Charge: 0
#        ATOM Count: 58
#        Heavy ATOM Count: 30
@<TRIPOS>MOLECULE
ZINC61580633_1GCZ_R01_S0001_C0000_L00003_S0001_C0021_G0010_E0001
 58 59 0 0 0
SMALL
USER_CHARGES
@<TRIPOS>ATOM
       1 C1         3.1908  -13.3930    6.4160 C.3       1 <0>        -0.1532 
       2 C2         3.3983  -13.0949    4.9338 C.3       1 <0>        -0.1224 
       3 C3         4.2536  -11.8378    4.7830 C.3       1 <0>        -0.1198 
       4 C4         3.5363  -10.6540    5.4301 C.3       1 <0>         0.0610 
       5 O1         4.3368   -9.4775    5.2890 O.3       1 <0>        -0.3878 
       6 C5         3.7139   -8.3329    5.8780 C.3       1 <0>         0.0487 
       7 C6         4.6152   -7.1128    5.6947 C.3       1 <0>         0.1244 
       8 N1         3.9749   -5.9363    6.3003 N.am      1 <0>        -0.7216 
       9 C7         2.9142   -5.3838    5.7184 C.2       1 <0>         0.5161 
      10 O2         2.4688   -5.8565    4.6739 O.2       1 <0>        -0.5151 
      11 C8         2.2565   -4.1752    6.3404 C.3       1 <0>         0.0490 
      12 O3         3.1230   -3.0446    6.2152 O.3       1 <0>        -0.3194 
      13 C9         2.7011   -1.8647    6.7174 C.2       1 <0>         0.5417 
      14 O4         1.6101   -1.7861    7.2579 O.2       1 <0>        -0.5337 
      15 C10        3.5623   -0.6659    6.6121 C.2       1 <0>        -0.2559 
      16 C11        3.1928    0.6761    7.1151 C.2       1 <0>        -0.0791 
      17 C12        4.1417    1.5858    6.8818 C.2       1 <0>        -0.2585 
      18 S1         5.5486    0.9067    6.0501 S.3       1 <0>         0.3028 
      19 C13        4.7699   -0.6826    6.0316 C.2       1 <0>         0.0893 
      20 N2         5.3020   -1.8216    5.4872 N.am      1 <0>        -0.6099 
      21 C14        6.5051   -1.7899    4.9211 C.2       1 <0>         0.5551 
      22 O5         7.1405   -0.7373    4.8864 O.2       1 <0>        -0.4939 
      23 C15        7.0785   -3.0212    4.3335 C.ar      1 <0>        -0.1466 
      24 C16        8.3464   -2.9420    3.7451 C.ar      1 <0>        -0.0772 
      25 C17        8.9097   -4.0541    3.1082 C.ar      1 <0>        -0.1241 
      26 C18        8.2103   -5.2646    3.0390 C.ar      1 <0>        -0.0446 
      27 C19        6.9656   -5.3621    3.6725 C.ar      1 <0>        -0.1261 
      28 C20        6.4187   -4.2559    4.3336 C.ar      1 <0>        -0.0460 
      29 C21        8.8082   -6.4341    2.2939 C.3       1 <0>        -0.0928 
      30 C22        8.3603   -6.3898    0.8359 C.3       1 <0>        -0.1485 
      31 H1         2.6749  -12.5575    6.8846 H         1 <0>         0.0567 
      32 H2         4.1569  -13.5380    6.8948 H         1 <0>         0.0554 
      33 H3         2.5930  -14.2956    6.5235 H         1 <0>         0.0557 
      34 H4         3.9029  -13.9351    4.4615 H         1 <0>         0.0632 
      35 H5         2.4334  -12.9357    4.4568 H         1 <0>         0.0635 
      36 H6         5.2135  -11.9906    5.2718 H         1 <0>         0.0711 
      37 H7         4.4127  -11.6312    3.7266 H         1 <0>         0.0704 
      38 H8         2.5765  -10.4995    4.9415 H         1 <0>         0.0498 
      39 H9         3.3774  -10.8590    6.4868 H         1 <0>         0.0505 
      40 H10        3.5569   -8.5109    6.9398 H         1 <0>         0.0584 
      41 H11        2.7562   -8.1515    5.3946 H         1 <0>         0.0702 
      42 H12        4.7722   -6.9333    4.6333 H         1 <0>         0.0872 
      43 H13        5.5729   -7.2928    6.1784 H         1 <0>         0.0805 
      44 H14        4.3398   -5.5473    7.1579 H         1 <0>         0.4058 
      45 H15        1.3175   -3.9699    5.8306 H         1 <0>         0.1008 
      46 H16        2.0633   -4.3686    7.3935 H         1 <0>         0.0999 
      47 H17        2.2596    0.8719    7.6221 H         1 <0>         0.1557 
      48 H18        4.0505    2.6178    7.1865 H         1 <0>         0.1929 
      49 H19        4.7804   -2.6859    5.5157 H         1 <0>         0.4317 
      50 H20        8.8959   -2.0128    3.7775 H         1 <0>         0.1287 
      51 H21        9.8911   -3.9828    2.6632 H         1 <0>         0.1326 
      52 H22        6.4359   -6.3030    3.6473 H         1 <0>         0.1342 
      53 H23        5.4844   -4.4071    4.8538 H         1 <0>         0.1410 
      54 H24        8.4722   -7.3634    2.7492 H         1 <0>         0.0777 
      55 H25        9.8936   -6.3776    2.3425 H         1 <0>         0.0771 
      56 H26        8.7077   -5.4659    0.3784 H         1 <0>         0.0623 
      57 H27        7.2741   -6.4322    0.7893 H         1 <0>         0.0572 
      58 H28        8.7803   -7.2398    0.3023 H         1 <0>         0.0578 
@<TRIPOS>BOND
       1        1        2 1        
       2        1       31 1        
       3        1       32 1        
       4        1       33 1        
       5        2        3 1        
       6        2       34 1        
       7        2       35 1        
       8        3        4 1        
       9        3       36 1        
      10        3       37 1        
      11        4        5 1        
      12        4       38 1        
      13        4       39 1        
      14        5        6 1        
      15        6        7 1        
      16        6       40 1        
      17        6       41 1        
      18        7        8 1        
      19        7       42 1        
      20        7       43 1        
      21        8        9 am       
      22        8       44 1        
      23        9       10 2        
      24        9       11 1        
      25       11       12 1        
      26       11       45 1        
      27       11       46 1        
      28       12       13 1        
      29       13       14 2        
      30       13       15 1        
      31       15       19 2        
      32       15       16 1        
      33       16       17 2        
      34       16       47 1        
      35       17       18 1        
      36       17       48 1        
      37       18       19 1        
      38       19       20 1        
      39       20       21 am       
      40       20       49 1        
      41       21       22 2        
      42       21       23 1        
      43       23       28 ar       
      44       23       24 ar       
      45       24       25 ar       
      46       24       50 1        
      47       25       26 ar       
      48       25       51 1        
      49       26       27 ar       
      50       26       29 1        
      51       27       28 ar       
      52       27       52 1        
      53       28       53 1        
      54       29       30 1        
      55       29       54 1        
      56       29       55 1        
      57       30       56 1        
      58       30       57 1        
      59       30       58 1        

