#        1GCZ_R01_S0001_C0000_L00012_S0001_C0041_G0010_E0001.mol2
#        Tue Jun  6 09:59:11 2017
#        Descriptor:      4    25    33     8     8    13
#        Energy - RMSD - RMSD MassCentre:     -72.5341    999.9999    999.9999
#        Receptor:       1  Surface Point:     1  Conformer:     0
#        Ligand:        12  Surface Point:     1  Conformer:    41
#        BUDE Formal Charge: 0
#        ATOM Count: 54
#        Heavy ATOM Count: 28
@<TRIPOS>MOLECULE
ZINC61282011_1GCZ_R01_S0001_C0000_L00012_S0001_C0041_G0010_E0001
 54 56 0 0 0
SMALL
USER_CHARGES
@<TRIPOS>ATOM
       1 C1         3.2311   -0.2548    7.0550 C.3       1 <0>        -0.1394 
       2 C2         3.6562   -0.0635    8.5080 C.3       1 <0>        -0.1416 
       3 C3         2.4619   -0.2600    9.4109 C.2       1 <0>         0.5168 
       4 O1         2.0776    0.6588   10.1326 O.2       1 <0>        -0.5327 
       5 N1         1.8251   -1.4276    9.4257 N.am      1 <0>        -0.7288 
       6 C4         0.6625   -1.6190   10.3046 C.3       1 <0>         0.1281 
       7 C5        -0.5395   -0.9289    9.7053 C.2       1 <0>         0.4647 
       8 O2        -1.4780   -1.5719    9.3398 O.2       1 <0>        -0.5000 
       9 O3        -0.5538    0.4154    9.5824 O.3       1 <0>        -0.3169 
      10 C6        -1.7138    1.0242    9.0090 C.3       1 <0>         0.0729 
      11 C7        -2.9478    0.6290    9.8151 C.3       1 <0>        -0.1704 
      12 C8        -1.8740    0.5553    7.5826 C.2       1 <0>         0.5166 
      13 O4        -2.9041   -0.0205    7.2357 O.2       1 <0>        -0.4890 
      14 N2        -0.9009    0.7650    6.7007 N.am      1 <0>        -0.6633 
      15 C9        -1.0496    0.3264    5.3638 C.ar      1 <0>         0.1513 
      16 C10       -2.2816   -0.1971    4.9541 C.ar      1 <0>        -0.1318 
      17 C11       -2.4858   -0.6460    3.6438 C.ar      1 <0>        -0.0823 
      18 C12       -1.3958   -0.5424    2.7715 C.ar      1 <0>         0.0206 
      19 C13       -0.1696   -0.0120    3.1895 C.ar      1 <0>         0.0545 
      20 C14        0.0485    0.4387    4.4969 C.ar      1 <0>        -0.1051 
      21 O5         0.7693   -0.0914    2.1634 O.3       1 <0>        -0.2879 
      22 C15       -0.1506   -0.2467    1.0799 C.3       1 <0>         0.2651 
      23 O6        -1.3596   -0.9133    1.4530 O.3       1 <0>        -0.2965 
      24 C16        0.4803   -1.0740   -0.0934 C.3       1 <0>        -0.1489 
      25 C17        1.2977   -0.1674   -1.0321 C.3       1 <0>        -0.1151 
      26 C18        0.3747    0.8198   -1.7704 C.3       1 <0>        -0.1246 
      27 C19       -0.8393    1.1955   -0.9006 C.3       1 <0>        -0.1168 
      28 C20       -0.4905    1.1763    0.5993 C.3       1 <0>        -0.1129 
      29 H1         2.4717    0.4813    6.8000 H         1 <0>         0.0628 
      30 H2         4.0943   -0.1262    6.4053 H         1 <0>         0.0629 
      31 H3         2.8248   -1.2558    6.9255 H         1 <0>         0.0642 
      32 H4         4.0496    0.9420    8.6419 H         1 <0>         0.0966 
      33 H5         4.4246   -0.7910    8.7607 H         1 <0>         0.0967 
      34 H6         2.1397   -2.1828    8.8334 H         1 <0>         0.4129 
      35 H7         0.4557   -2.6822   10.4072 H         1 <0>         0.1177 
      36 H8         0.8733   -1.1939   11.2836 H         1 <0>         0.1174 
      37 H9        -1.6012    2.1061    9.0239 H         1 <0>         0.1170 
      38 H10       -3.0522   -0.4539    9.8099 H         1 <0>         0.0784 
      39 H11       -2.8381    0.9785   10.8395 H         1 <0>         0.0805 
      40 H12       -3.8313    1.0814    9.3696 H         1 <0>         0.0845 
      41 H13       -0.0551    1.2378    6.9855 H         1 <0>         0.4164 
      42 H14       -3.0958   -0.2563    5.6613 H         1 <0>         0.1427 
      43 H15       -3.4358   -1.0498    3.3262 H         1 <0>         0.1415 
      44 H16        1.0027    0.8458    4.7972 H         1 <0>         0.1512 
      45 H17        1.1184   -1.8600    0.3046 H         1 <0>         0.0736 
      46 H18       -0.3214   -1.5536   -0.6511 H         1 <0>         0.0900 
      47 H19        1.8239   -0.7797   -1.7613 H         1 <0>         0.0715 
      48 H20        2.0406    0.3845   -0.4601 H         1 <0>         0.0728 
      49 H21        0.9317    1.7218   -2.0155 H         1 <0>         0.0706 
      50 H22        0.0317    0.3761   -2.7027 H         1 <0>         0.0661 
      51 H23       -1.6450    0.4885   -1.0866 H         1 <0>         0.0735 
      52 H24       -1.1936    2.1860   -1.1788 H         1 <0>         0.0762 
      53 H25        0.3655    1.8226    0.7811 H         1 <0>         0.0928 
      54 H26       -1.3294    1.5664    1.1718 H         1 <0>         0.0829 
@<TRIPOS>BOND
       1        1        2 1        
       2        1       29 1        
       3        1       30 1        
       4        1       31 1        
       5        2        3 1        
       6        2       32 1        
       7        2       33 1        
       8        3        4 2        
       9        3        5 am       
      10        5        6 1        
      11        5       34 1        
      12        6        7 1        
      13        6       35 1        
      14        6       36 1        
      15        7        8 2        
      16        7        9 1        
      17        9       10 1        
      18       10       11 1        
      19       10       12 1        
      20       10       37 1        
      21       11       38 1        
      22       11       39 1        
      23       11       40 1        
      24       12       13 2        
      25       12       14 am       
      26       14       15 1        
      27       14       41 1        
      28       15       20 ar       
      29       15       16 ar       
      30       16       17 ar       
      31       16       42 1        
      32       17       18 ar       
      33       17       43 1        
      34       18       23 1        
      35       18       19 ar       
      36       19       20 ar       
      37       19       21 1        
      38       20       44 1        
      39       21       22 1        
      40       22       28 1        
      41       22       23 1        
      42       22       24 1        
      43       24       25 1        
      44       24       45 1        
      45       24       46 1        
      46       25       26 1        
      47       25       47 1        
      48       25       48 1        
      49       26       27 1        
      50       26       49 1        
      51       26       50 1        
      52       27       28 1        
      53       27       51 1        
      54       27       52 1        
      55       28       53 1        
      56       28       54 1        

