#        1GCZ_R01_S0001_C0000_L00012_S0001_C0041_G0010_E0001.mol2
#        Tue Jun  6 14:14:18 2017
#        Descriptor:      5    25     1     8     9    12
#        Energy - RMSD - RMSD MassCentre:     -74.6033    999.9999    999.9999
#        Receptor:       1  Surface Point:     1  Conformer:     0
#        Ligand:        12  Surface Point:     1  Conformer:    41
#        BUDE Formal Charge: 0
#        ATOM Count: 54
#        Heavy ATOM Count: 28
@<TRIPOS>MOLECULE
ZINC61282011_1GCZ_R01_S0001_C0000_L00012_S0001_C0041_G0010_E0001
 54 56 0 0 0
SMALL
USER_CHARGES
@<TRIPOS>ATOM
       1 C1         2.8997    2.5453    5.9828 C.3       1 <0>        -0.1394 
       2 C2         3.1603    3.0120    7.4121 C.3       1 <0>        -0.1416 
       3 C3         2.2273    2.2897    8.3544 C.2       1 <0>         0.5168 
       4 O1         1.4250    2.9266    9.0351 O.2       1 <0>        -0.5327 
       5 N1         2.2732    0.9637    8.4483 N.am      1 <0>        -0.7288 
       6 C4         1.3650    0.2606    9.3655 C.3       1 <0>         0.1281 
       7 C5        -0.0176    0.2069    8.7607 C.2       1 <0>         0.4647 
       8 O2        -0.4962   -0.8442    8.4544 O.2       1 <0>        -0.5000 
       9 O3        -0.7133    1.3473    8.5660 O.3       1 <0>        -0.3169 
      10 C6        -2.0185    1.2467    7.9904 C.3       1 <0>         0.0729 
      11 C7        -2.8841    0.3278    8.8477 C.3       1 <0>        -0.1704 
      12 C8        -1.9100    0.6778    6.5958 C.2       1 <0>         0.5166 
      13 O4        -2.5018   -0.3610    6.3068 O.2       1 <0>        -0.4890 
      14 N2        -1.1742    1.3003    5.6794 N.am      1 <0>        -0.6633 
      15 C9        -1.0717    0.7685    4.3723 C.ar      1 <0>         0.1513 
      16 C10       -1.8635   -0.3318    4.0230 C.ar      1 <0>        -0.1318 
      17 C11       -1.8036   -0.8990    2.7444 C.ar      1 <0>        -0.0823 
      18 C12       -0.9132   -0.3077    1.8402 C.ar      1 <0>         0.0206 
      19 C13       -0.1300    0.7961    2.1977 C.ar      1 <0>         0.0545 
      20 C14       -0.1787    1.3717    3.4729 C.ar      1 <0>        -0.1051 
      21 O5         0.7244    1.1442    1.1538 O.3       1 <0>        -0.2879 
      22 C15        0.0175    0.4789    0.1040 C.3       1 <0>         0.2651 
      23 O6        -0.6861   -0.6861    0.5431 O.3       1 <0>        -0.2965 
      24 C16        0.9880    0.0192   -1.0387 C.3       1 <0>        -0.1489 
      25 C17        1.2355    1.1578   -2.0454 C.3       1 <0>        -0.1151 
      26 C18       -0.0574    1.4931   -2.8121 C.3       1 <0>        -0.1246 
      27 C19       -1.2984    1.2504   -1.9332 C.3       1 <0>        -0.1168 
      28 C20       -0.9966    1.5001   -0.4438 C.3       1 <0>        -0.1129 
      29 H1         1.8728    2.7767    5.7079 H         1 <0>         0.0628 
      30 H2         3.5809    3.0561    5.3054 H         1 <0>         0.0629 
      31 H3         3.0601    1.4712    5.9177 H         1 <0>         0.0642 
      32 H4         2.9865    4.0838    7.4816 H         1 <0>         0.0966 
      33 H5         4.1906    2.7926    7.6839 H         1 <0>         0.0967 
      34 H6         2.9316    0.4397    7.8897 H         1 <0>         0.4129 
      35 H7         1.7275   -0.7519    9.5305 H         1 <0>         0.1177 
      36 H8         1.3247    0.7910   10.3145 H         1 <0>         0.1174 
      37 H9        -2.4723    2.2343    7.9441 H         1 <0>         0.1170 
      38 H10       -2.4229   -0.6559    8.9035 H         1 <0>         0.0784 
      39 H11       -2.9731    0.7446    9.8487 H         1 <0>         0.0805 
      40 H12       -3.8723    0.2409    8.4011 H         1 <0>         0.0845 
      41 H13       -0.6883    2.1532    5.9167 H         1 <0>         0.4164 
      42 H14       -2.5381   -0.7545    4.7528 H         1 <0>         0.1427 
      43 H15       -2.4142   -1.7476    2.4733 H         1 <0>         0.1415 
      44 H16        0.4338    2.2243    3.7265 H         1 <0>         0.1512 
      45 H17        1.9352   -0.3082   -0.6154 H         1 <0>         0.0736 
      46 H18        0.5451   -0.8334   -1.5492 H         1 <0>         0.0900 
      47 H19        2.0040    0.8560   -2.7537 H         1 <0>         0.0715 
      48 H20        1.5910    2.0436   -1.5230 H         1 <0>         0.0728 
      49 H21       -0.0356    2.5365   -3.1195 H         1 <0>         0.0706 
      50 H22       -0.1217    0.8821   -3.7101 H         1 <0>         0.0661 
      51 H23       -1.6311    0.2224   -2.0602 H         1 <0>         0.0735 
      52 H24       -2.1059    1.9048   -2.2552 H         1 <0>         0.0762 
      53 H25       -0.5896    2.5013   -0.3189 H         1 <0>         0.0928 
      54 H26       -1.9204    1.4428    0.1280 H         1 <0>         0.0829 
@<TRIPOS>BOND
       1        1        2 1        
       2        1       29 1        
       3        1       30 1        
       4        1       31 1        
       5        2        3 1        
       6        2       32 1        
       7        2       33 1        
       8        3        4 2        
       9        3        5 am       
      10        5        6 1        
      11        5       34 1        
      12        6        7 1        
      13        6       35 1        
      14        6       36 1        
      15        7        8 2        
      16        7        9 1        
      17        9       10 1        
      18       10       11 1        
      19       10       12 1        
      20       10       37 1        
      21       11       38 1        
      22       11       39 1        
      23       11       40 1        
      24       12       13 2        
      25       12       14 am       
      26       14       15 1        
      27       14       41 1        
      28       15       20 ar       
      29       15       16 ar       
      30       16       17 ar       
      31       16       42 1        
      32       17       18 ar       
      33       17       43 1        
      34       18       23 1        
      35       18       19 ar       
      36       19       20 ar       
      37       19       21 1        
      38       20       44 1        
      39       21       22 1        
      40       22       28 1        
      41       22       23 1        
      42       22       24 1        
      43       24       25 1        
      44       24       45 1        
      45       24       46 1        
      46       25       26 1        
      47       25       47 1        
      48       25       48 1        
      49       26       27 1        
      50       26       49 1        
      51       26       50 1        
      52       27       28 1        
      53       27       51 1        
      54       27       52 1        
      55       28       53 1        
      56       28       54 1        

