#        1GCZ_R01_S0001_C0000_L00012_S0001_C0042_G0010_E0001.mol2
#        Tue Jun  6 09:59:12 2017
#        Descriptor:      5    25     2     8     9    11
#        Energy - RMSD - RMSD MassCentre:     -82.2106    999.9999    999.9999
#        Receptor:       1  Surface Point:     1  Conformer:     0
#        Ligand:        12  Surface Point:     1  Conformer:    42
#        BUDE Formal Charge: 0
#        ATOM Count: 54
#        Heavy ATOM Count: 28
@<TRIPOS>MOLECULE
ZINC61282011_1GCZ_R01_S0001_C0000_L00012_S0001_C0042_G0010_E0001
 54 56 0 0 0
SMALL
USER_CHARGES
@<TRIPOS>ATOM
       1 C1         2.6609    3.2343    4.9587 C.3       1 <0>        -0.1394 
       2 C2         2.8365    3.7391    6.3880 C.3       1 <0>        -0.1416 
       3 C3         2.0430    2.8658    7.3303 C.2       1 <0>         0.5168 
       4 O1         1.1423    3.3536    8.0109 O.2       1 <0>        -0.5327 
       5 N1         2.3185    1.5679    7.4241 N.am      1 <0>        -0.7288 
       6 C4         1.5462    0.7177    8.3414 C.3       1 <0>         0.1281 
       7 C5         0.1939    0.4248    7.7366 C.2       1 <0>         0.4647 
       8 O2        -0.0949   -0.6935    7.4303 O.2       1 <0>        -0.5000 
       9 O3        -0.6892    1.4270    7.5419 O.3       1 <0>        -0.3169 
      10 C6        -1.9571    1.1013    6.9662 C.3       1 <0>         0.0729 
      11 C7        -2.6500    0.0461    7.8236 C.3       1 <0>        -0.1704 
      12 C8        -1.7515    0.5599    5.5717 C.2       1 <0>         0.5166 
      13 O4        -2.1539   -0.5659    5.2827 O.2       1 <0>        -0.4890 
      14 N2        -1.1349    1.3007    4.6553 N.am      1 <0>        -0.6633 
      15 C9        -0.9416    0.7948    3.3481 C.ar      1 <0>         0.1513 
      16 C10       -1.5304   -0.4263    2.9988 C.ar      1 <0>        -0.1318 
      17 C11       -1.3729   -0.9745    1.7202 C.ar      1 <0>        -0.0823 
      18 C12       -0.5987   -0.2376    0.8161 C.ar      1 <0>         0.0206 
      19 C13       -0.0190    0.9855    1.1736 C.ar      1 <0>         0.0545 
      20 C14       -0.1670    1.5439    2.4488 C.ar      1 <0>        -0.1051 
      21 O5         0.7619    1.4767    0.1297 O.3       1 <0>        -0.2879 
      22 C15        0.1812    0.6987   -0.9201 C.3       1 <0>         0.2651 
      23 O6        -0.3093   -0.5708   -0.4810 O.3       1 <0>        -0.2965 
      24 C16        1.2067    0.4330   -2.0070 C.3       1 <0>        -0.1489 
      25 C17        0.6575   -0.4328   -3.1558 C.3       1 <0>        -0.1151 
      26 C18       -0.8422   -0.1577   -3.3719 C.3       1 <0>        -0.1246 
      27 C19       -1.2007    1.2864   -2.9747 C.3       1 <0>        -0.1168 
      28 C20       -0.9948    1.5283   -1.4679 C.3       1 <0>        -0.1129 
      29 H1         1.6094    3.2838    4.6837 H         1 <0>         0.0628 
      30 H2         3.2430    3.8556    4.2812 H         1 <0>         0.0629 
      31 H3         3.0053    2.2043    4.8936 H         1 <0>         0.0642 
      32 H4         2.4792    4.7644    6.4575 H         1 <0>         0.0966 
      33 H5         3.8892    3.7019    6.6598 H         1 <0>         0.0967 
      34 H6         3.0579    1.1662    6.8656 H         1 <0>         0.4129 
      35 H7         2.0790   -0.2164    8.5064 H         1 <0>         0.1177 
      36 H8         1.4144    1.2331    9.2904 H         1 <0>         0.1174 
      37 H9        -2.5755    1.9951    6.9200 H         1 <0>         0.1170 
      38 H10       -2.0250   -0.8426    7.8794 H         1 <0>         0.0784 
      39 H11       -2.8101    0.4411    8.8246 H         1 <0>         0.0805 
      40 H12       -3.6082   -0.2111    7.3770 H         1 <0>         0.0845 
      41 H13       -0.8045    2.2251    4.8926 H         1 <0>         0.4164 
      42 H14       -2.1213   -0.9597    3.7287 H         1 <0>         0.1427 
      43 H15       -1.8268   -1.9162    1.4491 H         1 <0>         0.1415 
      44 H16        0.2882    2.4899    2.7024 H         1 <0>         0.1512 
      45 H17        1.5602    1.3834   -2.4009 H         1 <0>         0.0736 
      46 H18        2.0555   -0.0657   -1.5437 H         1 <0>         0.0900 
      47 H19        0.7980   -1.4850   -2.9172 H         1 <0>         0.0715 
      48 H20        1.2038   -0.2217   -4.0728 H         1 <0>         0.0728 
      49 H21       -1.0913   -0.3126   -4.4197 H         1 <0>         0.0706 
      50 H22       -1.4332   -0.8552   -2.7820 H         1 <0>         0.0661 
      51 H23       -2.2418    1.4784   -3.2259 H         1 <0>         0.0735 
      52 H24       -0.5866    1.9829   -3.5421 H         1 <0>         0.0762 
      53 H25       -0.7920    2.5830   -1.2941 H         1 <0>         0.0928 
      54 H26       -1.9060    1.2720   -0.9315 H         1 <0>         0.0829 
@<TRIPOS>BOND
       1        1        2 1        
       2        1       29 1        
       3        1       30 1        
       4        1       31 1        
       5        2        3 1        
       6        2       32 1        
       7        2       33 1        
       8        3        4 2        
       9        3        5 am       
      10        5        6 1        
      11        5       34 1        
      12        6        7 1        
      13        6       35 1        
      14        6       36 1        
      15        7        8 2        
      16        7        9 1        
      17        9       10 1        
      18       10       11 1        
      19       10       12 1        
      20       10       37 1        
      21       11       38 1        
      22       11       39 1        
      23       11       40 1        
      24       12       13 2        
      25       12       14 am       
      26       14       15 1        
      27       14       41 1        
      28       15       20 ar       
      29       15       16 ar       
      30       16       17 ar       
      31       16       42 1        
      32       17       18 ar       
      33       17       43 1        
      34       18       23 1        
      35       18       19 ar       
      36       19       20 ar       
      37       19       21 1        
      38       20       44 1        
      39       21       22 1        
      40       22       28 1        
      41       22       23 1        
      42       22       24 1        
      43       24       25 1        
      44       24       45 1        
      45       24       46 1        
      46       25       26 1        
      47       25       47 1        
      48       25       48 1        
      49       26       27 1        
      50       26       49 1        
      51       26       50 1        
      52       27       28 1        
      53       27       51 1        
      54       27       52 1        
      55       28       53 1        
      56       28       54 1        

