#        1GCZ_R01_S0001_C0000_L00012_S0001_C0042_G0010_E0001.mol2
#        Tue Jun  6 14:14:20 2017
#        Descriptor:     21    29    13     8     8    13
#        Energy - RMSD - RMSD MassCentre:     -73.2166    999.9999    999.9999
#        Receptor:       1  Surface Point:     1  Conformer:     0
#        Ligand:        12  Surface Point:     1  Conformer:    42
#        BUDE Formal Charge: 0
#        ATOM Count: 54
#        Heavy ATOM Count: 28
@<TRIPOS>MOLECULE
ZINC61282011_1GCZ_R01_S0001_C0000_L00012_S0001_C0042_G0010_E0001
 54 56 0 0 0
SMALL
USER_CHARGES
@<TRIPOS>ATOM
       1 C1         3.2498   -0.8583    7.1473 C.3       1 <0>        -0.1394 
       2 C2         3.6408   -0.8098    8.6215 C.3       1 <0>        -0.1416 
       3 C3         2.3936   -0.8201    9.4727 C.2       1 <0>         0.5168 
       4 O1         2.1536    0.1228   10.2250 O.2       1 <0>        -0.5327 
       5 N1         1.5538   -1.8496    9.4086 N.am      1 <0>        -0.7288 
       6 C4         0.3397   -1.8596   10.2371 C.3       1 <0>         0.1281 
       7 C5        -0.6893   -0.9349    9.6319 C.2       1 <0>         0.4647 
       8 O2        -1.7132   -1.3777    9.2037 O.2       1 <0>        -0.5000 
       9 O3        -0.4522    0.3928    9.5746 O.3       1 <0>        -0.3169 
      10 C6        -1.4559    1.2289    8.9927 C.3       1 <0>         0.0729 
      11 C7        -2.7744    1.0350    9.7361 C.3       1 <0>        -0.1704 
      12 C8        -1.6387    0.8578    7.5404 C.2       1 <0>         0.5166 
      13 O4        -2.7411    0.4973    7.1310 O.2       1 <0>        -0.4890 
      14 N2        -0.6071    0.9211    6.7034 N.am      1 <0>        -0.6633 
      15 C9        -0.7768    0.5739    5.3423 C.ar      1 <0>         0.1513 
      16 C10       -2.0653    0.3045    4.8660 C.ar      1 <0>        -0.1318 
      17 C11       -2.2925   -0.0436    3.5291 C.ar      1 <0>        -0.0823 
      18 C12       -1.1660   -0.1067    2.7003 C.ar      1 <0>         0.0206 
      19 C13        0.1177    0.1702    3.1852 C.ar      1 <0>         0.0545 
      20 C14        0.3590    0.5176    4.5197 C.ar      1 <0>        -0.1051 
      21 O5         1.0689   -0.0381    2.1889 O.3       1 <0>        -0.2879 
      22 C15        0.1828    0.0247    1.0685 C.3       1 <0>         0.2651 
      23 O6        -1.1424   -0.4222    1.3672 O.3       1 <0>        -0.2965 
      24 C16        0.7045   -0.8407   -0.0640 C.3       1 <0>        -0.1489 
      25 C17       -0.2223   -0.8480   -1.2937 C.3       1 <0>        -0.1151 
      26 C18       -0.9338    0.5096   -1.4435 C.3       1 <0>        -0.1246 
      27 C19       -0.0708    1.6504   -0.8730 C.3       1 <0>        -0.1168 
      28 C20        0.1296    1.5048    0.6469 C.3       1 <0>        -0.1129 
      29 H1         2.6494    0.0155    6.9030 H         1 <0>         0.0628 
      30 H2         4.1487   -0.8641    6.5343 H         1 <0>         0.0629 
      31 H3         2.6732   -1.7606    6.9551 H         1 <0>         0.0642 
      32 H4         4.2055    0.0992    8.8178 H         1 <0>         0.0966 
      33 H5         4.2518   -1.6766    8.8641 H         1 <0>         0.0967 
      34 H6         1.7498   -2.6244    8.7910 H         1 <0>         0.4129 
      35 H7        -0.0622   -2.8697   10.2805 H         1 <0>         0.1177 
      36 H8         0.5830   -1.5221   11.2424 H         1 <0>         0.1174 
      37 H9        -1.1481    2.2698    9.0644 H         1 <0>         0.1170 
      38 H10       -3.0748   -0.0088    9.6744 H         1 <0>         0.0784 
      39 H11       -2.6461    1.3149   10.7796 H         1 <0>         0.0805 
      40 H12       -3.5406    1.6609    9.2836 H         1 <0>         0.0845 
      41 H13        0.2980    1.2171    7.0396 H         1 <0>         0.4164 
      42 H14       -2.9058    0.3671    5.5414 H         1 <0>         0.1427 
      43 H15       -3.2860   -0.2514    3.1600 H         1 <0>         0.1415 
      44 H16        1.3580    0.7286    4.8718 H         1 <0>         0.1512 
      45 H17        1.6930   -0.4895   -0.3521 H         1 <0>         0.0736 
      46 H18        0.8152   -1.8528    0.3194 H         1 <0>         0.0900 
      47 H19       -0.9676   -1.6327   -1.1825 H         1 <0>         0.0715 
      48 H20        0.3549   -1.0593   -2.1916 H         1 <0>         0.0728 
      49 H21       -1.1293    0.7015   -2.4965 H         1 <0>         0.0706 
      50 H22       -1.8906    0.4827   -0.9262 H         1 <0>         0.0661 
      51 H23       -0.5562    2.6025   -1.0774 H         1 <0>         0.0735 
      52 H24        0.8979    1.6565   -1.3686 H         1 <0>         0.0762 
      53 H25        1.0604    1.9869    0.9380 H         1 <0>         0.0928 
      54 H26       -0.6823    2.0063    1.1694 H         1 <0>         0.0829 
@<TRIPOS>BOND
       1        1        2 1        
       2        1       29 1        
       3        1       30 1        
       4        1       31 1        
       5        2        3 1        
       6        2       32 1        
       7        2       33 1        
       8        3        4 2        
       9        3        5 am       
      10        5        6 1        
      11        5       34 1        
      12        6        7 1        
      13        6       35 1        
      14        6       36 1        
      15        7        8 2        
      16        7        9 1        
      17        9       10 1        
      18       10       11 1        
      19       10       12 1        
      20       10       37 1        
      21       11       38 1        
      22       11       39 1        
      23       11       40 1        
      24       12       13 2        
      25       12       14 am       
      26       14       15 1        
      27       14       41 1        
      28       15       20 ar       
      29       15       16 ar       
      30       16       17 ar       
      31       16       42 1        
      32       17       18 ar       
      33       17       43 1        
      34       18       23 1        
      35       18       19 ar       
      36       19       20 ar       
      37       19       21 1        
      38       20       44 1        
      39       21       22 1        
      40       22       28 1        
      41       22       23 1        
      42       22       24 1        
      43       24       25 1        
      44       24       45 1        
      45       24       46 1        
      46       25       26 1        
      47       25       47 1        
      48       25       48 1        
      49       26       27 1        
      50       26       49 1        
      51       26       50 1        
      52       27       28 1        
      53       27       51 1        
      54       27       52 1        
      55       28       53 1        
      56       28       54 1        

