#        1GCZ_R01_S0001_C0000_L00012_S0001_C0043_G0010_E0001.mol2
#        Tue Jun  6 09:59:12 2017
#        Descriptor:     21    31     5     8     9    11
#        Energy - RMSD - RMSD MassCentre:     -75.2648    999.9999    999.9999
#        Receptor:       1  Surface Point:     1  Conformer:     0
#        Ligand:        12  Surface Point:     1  Conformer:    43
#        BUDE Formal Charge: 0
#        ATOM Count: 54
#        Heavy ATOM Count: 28
@<TRIPOS>MOLECULE
ZINC61282011_1GCZ_R01_S0001_C0000_L00012_S0001_C0043_G0010_E0001
 54 56 0 0 0
SMALL
USER_CHARGES
@<TRIPOS>ATOM
       1 C1        -1.3048    4.8211    9.1656 C.3       1 <0>        -0.1394 
       2 C2        -0.5467    3.6071    9.6948 C.3       1 <0>        -0.1416 
       3 C3         0.4211    3.1210    8.6425 C.2       1 <0>         0.5168 
       4 O1         1.6283    3.1030    8.8773 O.2       1 <0>        -0.5327 
       5 N1        -0.0324    2.7121    7.4609 N.am      1 <0>        -0.7288 
       6 C4         0.9097    2.2389    6.4365 C.3       1 <0>         0.1281 
       7 C5         1.3707    0.8436    6.7840 C.2       1 <0>         0.4647 
       8 O2         2.5163    0.6431    7.0584 O.2       1 <0>        -0.5000 
       9 O3         0.4882   -0.1779    6.7846 O.3       1 <0>        -0.3169 
      10 C6        -0.8718    0.1106    6.4499 C.3       1 <0>         0.0729 
      11 C7        -1.7091   -1.1585    6.5814 C.3       1 <0>        -0.1704 
      12 C8        -0.9432    0.6144    5.0281 C.2       1 <0>         0.5166 
      13 O4        -1.4164    1.7247    4.7913 O.2       1 <0>        -0.4890 
      14 N2        -0.4939   -0.1429    4.0313 N.am      1 <0>        -0.6633 
      15 C9        -0.5600    0.3278    2.6987 C.ar      1 <0>         0.1513 
      16 C10       -0.9684    1.6461    2.4638 C.ar      1 <0>        -0.1318 
      17 C11       -1.0521    2.1652    1.1662 C.ar      1 <0>        -0.0823 
      18 C12       -0.7064    1.2977    0.1233 C.ar      1 <0>         0.0206 
      19 C13       -0.2937   -0.0172    0.3692 C.ar      1 <0>         0.0545 
      20 C14       -0.2073   -0.5493    1.6612 C.ar      1 <0>        -0.1051 
      21 O5        -0.0847   -0.6935   -0.8307 O.3       1 <0>        -0.2879 
      22 C15        0.0456    0.4551   -1.6723 C.3       1 <0>         0.2651 
      23 O6        -0.7100    1.5807   -1.2173 O.3       1 <0>        -0.2965 
      24 C16       -0.4177    0.0561   -3.1652 C.3       1 <0>        -0.1489 
      25 C17        0.4664   -1.0729   -3.7265 C.3       1 <0>        -0.1151 
      26 C18        1.9504   -0.6625   -3.6995 C.3       1 <0>        -0.1246 
      27 C19        2.3987   -0.3088   -2.2692 C.3       1 <0>        -0.1168 
      28 C20        1.5414    0.8210   -1.6690 C.3       1 <0>        -0.1129 
      29 H1        -1.8641    4.5390    8.2760 H         1 <0>         0.0628 
      30 H2        -1.9926    5.1793    9.9286 H         1 <0>         0.0629 
      31 H3        -0.5972    5.6088    8.9153 H         1 <0>         0.0642 
      32 H4        -1.2521    2.8135    9.9322 H         1 <0>         0.0966 
      33 H5         0.0031    3.8848   10.5917 H         1 <0>         0.0967 
      34 H6        -1.0235    2.7264    7.2670 H         1 <0>         0.4129 
      35 H7         0.4161    2.2261    5.4671 H         1 <0>         0.1177 
      36 H8         1.7690    2.9050    6.3976 H         1 <0>         0.1174 
      37 H9        -1.2583    0.8723    7.1236 H         1 <0>         0.1170 
      38 H10       -1.3140   -1.9235    5.9162 H         1 <0>         0.0784 
      39 H11       -1.6685   -1.5140    7.6087 H         1 <0>         0.0805 
      40 H12       -2.7407   -0.9409    6.3127 H         1 <0>         0.0845 
      41 H13       -0.1053   -1.0545    4.2258 H         1 <0>         0.4164 
      42 H14       -1.2240    2.2805    3.2996 H         1 <0>         0.1427 
      43 H15       -1.3667    3.1821    0.9834 H         1 <0>         0.1415 
      44 H16        0.1151   -1.5665    1.8278 H         1 <0>         0.1512 
      45 H17       -1.4589   -0.2593   -3.1648 H         1 <0>         0.0736 
      46 H18       -0.3418    0.9345   -3.8027 H         1 <0>         0.0900 
      47 H19        0.1730   -1.2885   -4.7518 H         1 <0>         0.0715 
      48 H20        0.3267   -1.9790   -3.1407 H         1 <0>         0.0728 
      49 H21        2.5597   -1.4833   -4.0722 H         1 <0>         0.0706 
      50 H22        2.1078    0.1930   -4.3528 H         1 <0>         0.0661 
      51 H23        3.4395    0.0078   -2.2887 H         1 <0>         0.0735 
      52 H24        2.3302   -1.1919   -1.6374 H         1 <0>         0.0762 
      53 H25        1.8550    1.0092   -0.6445 H         1 <0>         0.0928 
      54 H26        1.6967    1.7355   -2.2377 H         1 <0>         0.0829 
@<TRIPOS>BOND
       1        1        2 1        
       2        1       29 1        
       3        1       30 1        
       4        1       31 1        
       5        2        3 1        
       6        2       32 1        
       7        2       33 1        
       8        3        4 2        
       9        3        5 am       
      10        5        6 1        
      11        5       34 1        
      12        6        7 1        
      13        6       35 1        
      14        6       36 1        
      15        7        8 2        
      16        7        9 1        
      17        9       10 1        
      18       10       11 1        
      19       10       12 1        
      20       10       37 1        
      21       11       38 1        
      22       11       39 1        
      23       11       40 1        
      24       12       13 2        
      25       12       14 am       
      26       14       15 1        
      27       14       41 1        
      28       15       20 ar       
      29       15       16 ar       
      30       16       17 ar       
      31       16       42 1        
      32       17       18 ar       
      33       17       43 1        
      34       18       23 1        
      35       18       19 ar       
      36       19       20 ar       
      37       19       21 1        
      38       20       44 1        
      39       21       22 1        
      40       22       28 1        
      41       22       23 1        
      42       22       24 1        
      43       24       25 1        
      44       24       45 1        
      45       24       46 1        
      46       25       26 1        
      47       25       47 1        
      48       25       48 1        
      49       26       27 1        
      50       26       49 1        
      51       26       50 1        
      52       27       28 1        
      53       27       51 1        
      54       27       52 1        
      55       28       53 1        
      56       28       54 1        

