#        1GCZ_R01_S0001_C0000_L00012_S0001_C0043_G0010_E0001.mol2
#        Tue Jun  6 14:14:22 2017
#        Descriptor:      9    23    36     8    10    13
#        Energy - RMSD - RMSD MassCentre:     -76.9594    999.9999    999.9999
#        Receptor:       1  Surface Point:     1  Conformer:     0
#        Ligand:        12  Surface Point:     1  Conformer:    43
#        BUDE Formal Charge: 0
#        ATOM Count: 54
#        Heavy ATOM Count: 28
@<TRIPOS>MOLECULE
ZINC61282011_1GCZ_R01_S0001_C0000_L00012_S0001_C0043_G0010_E0001
 54 56 0 0 0
SMALL
USER_CHARGES
@<TRIPOS>ATOM
       1 C1        -2.2502    5.0898   11.3014 C.3       1 <0>        -0.1394 
       2 C2        -0.9041    5.7713   11.0726 C.3       1 <0>        -0.1416 
       3 C3        -0.6406    5.8781    9.5895 C.2       1 <0>         0.5168 
       4 O1        -0.5001    6.9826    9.0670 O.2       1 <0>        -0.5327 
       5 N1        -0.5602    4.7769    8.8480 N.am      1 <0>        -0.7288 
       6 C4        -0.3037    4.8808    7.4043 C.3       1 <0>         0.1281 
       7 C5         1.1571    5.1868    7.1744 C.2       1 <0>         0.4647 
       8 O2         1.4805    6.2294    6.6883 O.2       1 <0>        -0.5000 
       9 O3         2.0980    4.2819    7.5180 O.3       1 <0>        -0.3169 
      10 C6         1.6630    3.0486    8.0964 C.3       1 <0>         0.0729 
      11 C7         2.8782    2.2070    8.4755 C.3       1 <0>        -0.1704 
      12 C8         0.8216    2.2935    7.0953 C.2       1 <0>         0.5166 
      13 O4        -0.3368    1.9860    7.3720 O.2       1 <0>        -0.4890 
      14 N2         1.3332    1.9608    5.9137 N.am      1 <0>        -0.6633 
      15 C9         0.5460    1.2534    4.9746 C.ar      1 <0>         0.1513 
      16 C10       -0.8096    1.0383    5.2501 C.ar      1 <0>        -0.1318 
      17 C11       -1.6359    0.3452    4.3574 C.ar      1 <0>        -0.0823 
      18 C12       -1.0345   -0.1176    3.1810 C.ar      1 <0>         0.0206 
      19 C13        0.3208    0.1078    2.9123 C.ar      1 <0>         0.0545 
      20 C14        1.1585    0.7975    3.7969 C.ar      1 <0>        -0.1051 
      21 O5         0.6911   -0.5174    1.7237 O.3       1 <0>        -0.2879 
      22 C15       -0.6205   -0.6658    1.1741 C.3       1 <0>         0.2651 
      23 O6        -1.6386   -0.8139    2.1674 O.3       1 <0>        -0.2965 
      24 C16       -0.6270   -1.9464    0.1930 C.3       1 <0>        -0.1489 
      25 C17        0.3751   -1.7542   -0.9604 C.3       1 <0>        -0.1151 
      26 C18        0.0648   -0.4612   -1.7371 C.3       1 <0>        -0.1246 
      27 C19        0.0988    0.7639   -0.8046 C.3       1 <0>        -0.1168 
      28 C20       -0.8931    0.6152    0.3640 C.3       1 <0>        -0.1129 
      29 H1        -2.2265    4.0892   10.8748 H         1 <0>         0.0628 
      30 H2        -2.4462    5.0248   12.3695 H         1 <0>         0.0629 
      31 H3        -3.0359    5.6704   10.8223 H         1 <0>         0.0642 
      32 H4        -0.1159    5.1842   11.5390 H         1 <0>         0.0966 
      33 H5        -0.9224    6.7675   11.5097 H         1 <0>         0.0967 
      34 H6        -0.6754    3.8694    9.2761 H         1 <0>         0.4129 
      35 H7        -0.5566    3.9392    6.9217 H         1 <0>         0.1177 
      36 H8        -0.9114    5.6792    6.9837 H         1 <0>         0.1174 
      37 H9         1.0709    3.2531    8.9859 H         1 <0>         0.1170 
      38 H10        3.4761    2.0136    7.5874 H         1 <0>         0.0784 
      39 H11        3.4774    2.7453    9.2068 H         1 <0>         0.0805 
      40 H12        2.5458    1.2630    8.9024 H         1 <0>         0.0845 
      41 H13        2.2843    2.2133    5.6865 H         1 <0>         0.4164 
      42 H14       -1.2315    1.4152    6.1701 H         1 <0>         0.1427 
      43 H15       -2.6819    0.1788    4.5683 H         1 <0>         0.1415 
      44 H16        2.2012    0.9612    3.5683 H         1 <0>         0.1512 
      45 H17       -0.3779   -2.8479    0.7487 H         1 <0>         0.0736 
      46 H18       -1.6299   -2.0757   -0.2086 H         1 <0>         0.0900 
      47 H19        0.3155   -2.6027   -1.6388 H         1 <0>         0.0715 
      48 H20        1.3886   -1.7104   -0.5673 H         1 <0>         0.0728 
      49 H21        0.8002   -0.3288   -2.5280 H         1 <0>         0.0706 
      50 H22       -0.9155   -0.5377   -2.2027 H         1 <0>         0.0661 
      51 H23       -0.1561    1.6547   -1.3750 H         1 <0>         0.0735 
      52 H24        1.1053    0.8952   -0.4127 H         1 <0>         0.0762 
      53 H25       -0.8060    1.4745    1.0254 H         1 <0>         0.0928 
      54 H26       -1.9096    0.5951   -0.0232 H         1 <0>         0.0829 
@<TRIPOS>BOND
       1        1        2 1        
       2        1       29 1        
       3        1       30 1        
       4        1       31 1        
       5        2        3 1        
       6        2       32 1        
       7        2       33 1        
       8        3        4 2        
       9        3        5 am       
      10        5        6 1        
      11        5       34 1        
      12        6        7 1        
      13        6       35 1        
      14        6       36 1        
      15        7        8 2        
      16        7        9 1        
      17        9       10 1        
      18       10       11 1        
      19       10       12 1        
      20       10       37 1        
      21       11       38 1        
      22       11       39 1        
      23       11       40 1        
      24       12       13 2        
      25       12       14 am       
      26       14       15 1        
      27       14       41 1        
      28       15       20 ar       
      29       15       16 ar       
      30       16       17 ar       
      31       16       42 1        
      32       17       18 ar       
      33       17       43 1        
      34       18       23 1        
      35       18       19 ar       
      36       19       20 ar       
      37       19       21 1        
      38       20       44 1        
      39       21       22 1        
      40       22       28 1        
      41       22       23 1        
      42       22       24 1        
      43       24       25 1        
      44       24       45 1        
      45       24       46 1        
      46       25       26 1        
      47       25       47 1        
      48       25       48 1        
      49       26       27 1        
      50       26       49 1        
      51       26       50 1        
      52       27       28 1        
      53       27       51 1        
      54       27       52 1        
      55       28       53 1        
      56       28       54 1        

