#        1GCZ_R01_S0001_C0000_L00012_S0001_C0044_G0010_E0001.mol2
#        Tue Jun  6 09:59:13 2017
#        Descriptor:      4    25     2     7     8    11
#        Energy - RMSD - RMSD MassCentre:     -91.8388    999.9999    999.9999
#        Receptor:       1  Surface Point:     1  Conformer:     0
#        Ligand:        12  Surface Point:     1  Conformer:    44
#        BUDE Formal Charge: 0
#        ATOM Count: 54
#        Heavy ATOM Count: 28
@<TRIPOS>MOLECULE
ZINC61282011_1GCZ_R01_S0001_C0000_L00012_S0001_C0044_G0010_E0001
 54 56 0 0 0
SMALL
USER_CHARGES
@<TRIPOS>ATOM
       1 C1        -4.0749   -0.6198   11.0971 C.3       1 <0>        -0.1394 
       2 C2        -2.7512   -1.3634   10.9433 C.3       1 <0>        -0.1416 
       3 C3        -2.5576   -1.7506    9.4966 C.2       1 <0>         0.5168 
       4 O1        -3.4098   -1.4547    8.6605 O.2       1 <0>        -0.5327 
       5 N1        -1.4648   -2.4122    9.1263 N.am      1 <0>        -0.7288 
       6 C4        -1.2763   -2.7892    7.7181 C.3       1 <0>         0.1281 
       7 C5        -0.8551   -1.5751    6.9251 C.2       1 <0>         0.4647 
       8 O2         0.2294   -1.5338    6.4252 O.2       1 <0>        -0.5000 
       9 O3        -1.7044   -0.5358    6.7808 O.3       1 <0>        -0.3169 
      10 C6        -1.2614    0.5920    6.0213 C.3       1 <0>         0.0729 
      11 C7        -2.3359    1.6753    6.0436 C.3       1 <0>        -0.1704 
      12 C8        -1.0053    0.1678    4.5948 C.2       1 <0>         0.5166 
      13 O4        -1.2263   -0.9914    4.2480 O.2       1 <0>        -0.4890 
      14 N2        -0.5404    1.0481    3.7130 N.am      1 <0>        -0.6633 
      15 C9        -0.3000    0.6522    2.3760 C.ar      1 <0>         0.1513 
      16 C10       -0.5587   -0.6721    2.0032 C.ar      1 <0>        -0.1318 
      17 C11       -0.3396   -1.1193    0.6947 C.ar      1 <0>        -0.0823 
      18 C12        0.1495   -0.1736   -0.2145 C.ar      1 <0>         0.0206 
      19 C13        0.3994    1.1499    0.1671 C.ar      1 <0>         0.0545 
      20 C14        0.1865    1.6095    1.4722 C.ar      1 <0>        -0.1051 
      21 O5         0.9523    1.8650   -0.8930 O.3       1 <0>        -0.2879 
      22 C15        0.5382    0.9897   -1.9451 C.3       1 <0>         0.2651 
      23 O6         0.4363   -0.3776   -1.5386 O.3       1 <0>        -0.2965 
      24 C16        1.5633    1.0673   -3.1949 C.3       1 <0>        -0.1489 
      25 C17        1.0186    0.2798   -4.4009 C.3       1 <0>        -0.1151 
      26 C18       -0.3761    0.7966   -4.7998 C.3       1 <0>        -0.1246 
      27 C19       -1.3583    0.7015   -3.6174 C.3       1 <0>        -0.1168 
      28 C20       -0.8497    1.4844   -2.3927 C.3       1 <0>        -0.1129 
      29 H1        -4.8928   -1.2702   10.7938 H         1 <0>         0.0628 
      30 H2        -4.2082   -0.3293   12.1369 H         1 <0>         0.0629 
      31 H3        -4.0658    0.2691   10.4696 H         1 <0>         0.0642 
      32 H4        -2.7646   -2.2600   11.5594 H         1 <0>         0.0966 
      33 H5        -1.9335   -0.7185   11.2580 H         1 <0>         0.0967 
      34 H6        -0.7643   -2.6557    9.8120 H         1 <0>         0.4129 
      35 H7        -0.5055   -3.5536    7.6467 H         1 <0>         0.1177 
      36 H8        -2.2106   -3.1769    7.3176 H         1 <0>         0.1174 
      37 H9        -0.3425    0.9827    6.4532 H         1 <0>         0.1170 
      38 H10       -3.2578    1.2795    5.6229 H         1 <0>         0.0784 
      39 H11       -2.5109    1.9905    7.0701 H         1 <0>         0.0805 
      40 H12       -2.0036    2.5270    5.4537 H         1 <0>         0.0845 
      41 H13       -0.3589    1.9999    3.9978 H         1 <0>         0.4164 
      42 H14       -0.9372   -1.3672    2.7380 H         1 <0>         0.1427 
      43 H15       -0.5390   -2.1405    0.4054 H         1 <0>         0.1415 
      44 H16        0.3849    2.6358    1.7439 H         1 <0>         0.1512 
      45 H17        1.7304    2.1041   -3.4792 H         1 <0>         0.0736 
      46 H18        2.5212    0.6534   -2.8873 H         1 <0>         0.0900 
      47 H19        0.9500   -0.7753   -4.1449 H         1 <0>         0.0715 
      48 H20        1.6992    0.3761   -5.2443 H         1 <0>         0.0728 
      49 H21       -0.3001    1.8341   -5.1187 H         1 <0>         0.0706 
      50 H22       -0.7576    0.2172   -5.6378 H         1 <0>         0.0661 
      51 H23       -1.4867   -0.3433   -3.3423 H         1 <0>         0.0735 
      52 H24       -2.3293    1.0889   -3.9189 H         1 <0>         0.0762 
      53 H25       -0.7830    2.5417   -2.6400 H         1 <0>         0.0928 
      54 H26       -1.5586    1.3783   -1.5742 H         1 <0>         0.0829 
@<TRIPOS>BOND
       1        1        2 1        
       2        1       29 1        
       3        1       30 1        
       4        1       31 1        
       5        2        3 1        
       6        2       32 1        
       7        2       33 1        
       8        3        4 2        
       9        3        5 am       
      10        5        6 1        
      11        5       34 1        
      12        6        7 1        
      13        6       35 1        
      14        6       36 1        
      15        7        8 2        
      16        7        9 1        
      17        9       10 1        
      18       10       11 1        
      19       10       12 1        
      20       10       37 1        
      21       11       38 1        
      22       11       39 1        
      23       11       40 1        
      24       12       13 2        
      25       12       14 am       
      26       14       15 1        
      27       14       41 1        
      28       15       20 ar       
      29       15       16 ar       
      30       16       17 ar       
      31       16       42 1        
      32       17       18 ar       
      33       17       43 1        
      34       18       23 1        
      35       18       19 ar       
      36       19       20 ar       
      37       19       21 1        
      38       20       44 1        
      39       21       22 1        
      40       22       28 1        
      41       22       23 1        
      42       22       24 1        
      43       24       25 1        
      44       24       45 1        
      45       24       46 1        
      46       25       26 1        
      47       25       47 1        
      48       25       48 1        
      49       26       27 1        
      50       26       49 1        
      51       26       50 1        
      52       27       28 1        
      53       27       51 1        
      54       27       52 1        
      55       28       53 1        
      56       28       54 1        

