#        1GCZ_R01_S0001_C0000_L00012_S0001_C0044_G0010_E0001.mol2
#        Tue Jun  6 14:14:24 2017
#        Descriptor:     22    29    11     7     9    13
#        Energy - RMSD - RMSD MassCentre:     -68.7654    999.9999    999.9999
#        Receptor:       1  Surface Point:     1  Conformer:     0
#        Ligand:        12  Surface Point:     1  Conformer:    44
#        BUDE Formal Charge: 0
#        ATOM Count: 54
#        Heavy ATOM Count: 28
@<TRIPOS>MOLECULE
ZINC61282011_1GCZ_R01_S0001_C0000_L00012_S0001_C0044_G0010_E0001
 54 56 0 0 0
SMALL
USER_CHARGES
@<TRIPOS>ATOM
       1 C1        -1.6198    4.0749   13.0971 C.3       1 <0>        -0.1394 
       2 C2        -2.3634    2.7512   12.9433 C.3       1 <0>        -0.1416 
       3 C3        -2.7506    2.5576   11.4966 C.2       1 <0>         0.5168 
       4 O1        -2.4547    3.4098   10.6605 O.2       1 <0>        -0.5327 
       5 N1        -3.4122    1.4648   11.1263 N.am      1 <0>        -0.7288 
       6 C4        -3.7892    1.2763    9.7181 C.3       1 <0>         0.1281 
       7 C5        -2.5751    0.8551    8.9251 C.2       1 <0>         0.4647 
       8 O2        -2.5338   -0.2294    8.4252 O.2       1 <0>        -0.5000 
       9 O3        -1.5358    1.7044    8.7808 O.3       1 <0>        -0.3169 
      10 C6        -0.4080    1.2614    8.0213 C.3       1 <0>         0.0729 
      11 C7         0.6753    2.3359    8.0436 C.3       1 <0>        -0.1704 
      12 C8        -0.8322    1.0053    6.5948 C.2       1 <0>         0.5166 
      13 O4        -1.9914    1.2263    6.2480 O.2       1 <0>        -0.4890 
      14 N2         0.0481    0.5404    5.7130 N.am      1 <0>        -0.6633 
      15 C9        -0.3478    0.3000    4.3760 C.ar      1 <0>         0.1513 
      16 C10       -1.6721    0.5587    4.0032 C.ar      1 <0>        -0.1318 
      17 C11       -2.1193    0.3396    2.6947 C.ar      1 <0>        -0.0823 
      18 C12       -1.1736   -0.1495    1.7855 C.ar      1 <0>         0.0206 
      19 C13        0.1499   -0.3994    2.1671 C.ar      1 <0>         0.0545 
      20 C14        0.6095   -0.1865    3.4722 C.ar      1 <0>        -0.1051 
      21 O5         0.8650   -0.9523    1.1070 O.3       1 <0>        -0.2879 
      22 C15       -0.0103   -0.5382    0.0549 C.3       1 <0>         0.2651 
      23 O6        -1.3776   -0.4363    0.4614 O.3       1 <0>        -0.2965 
      24 C16        0.0673   -1.5633   -1.1949 C.3       1 <0>        -0.1489 
      25 C17       -0.7202   -1.0186   -2.4009 C.3       1 <0>        -0.1151 
      26 C18       -0.2034    0.3761   -2.7998 C.3       1 <0>        -0.1246 
      27 C19       -0.2985    1.3583   -1.6174 C.3       1 <0>        -0.1168 
      28 C20        0.4844    0.8497   -0.3927 C.3       1 <0>        -0.1129 
      29 H1        -2.2702    4.8928   12.7938 H         1 <0>         0.0628 
      30 H2        -1.3293    4.2082   14.1369 H         1 <0>         0.0629 
      31 H3        -0.7309    4.0658   12.4696 H         1 <0>         0.0642 
      32 H4        -3.2600    2.7646   13.5594 H         1 <0>         0.0966 
      33 H5        -1.7185    1.9335   13.2580 H         1 <0>         0.0967 
      34 H6        -3.6557    0.7643   11.8120 H         1 <0>         0.4129 
      35 H7        -4.5536    0.5055    9.6467 H         1 <0>         0.1177 
      36 H8        -4.1769    2.2106    9.3176 H         1 <0>         0.1174 
      37 H9        -0.0173    0.3425    8.4532 H         1 <0>         0.1170 
      38 H10        0.2795    3.2578    7.6229 H         1 <0>         0.0784 
      39 H11        0.9905    2.5109    9.0701 H         1 <0>         0.0805 
      40 H12        1.5270    2.0036    7.4537 H         1 <0>         0.0845 
      41 H13        0.9999    0.3589    5.9978 H         1 <0>         0.4164 
      42 H14       -2.3672    0.9372    4.7380 H         1 <0>         0.1427 
      43 H15       -3.1405    0.5390    2.4054 H         1 <0>         0.1415 
      44 H16        1.6358   -0.3849    3.7439 H         1 <0>         0.1512 
      45 H17        1.1041   -1.7304   -1.4792 H         1 <0>         0.0736 
      46 H18       -0.3466   -2.5212   -0.8873 H         1 <0>         0.0900 
      47 H19       -1.7753   -0.9500   -2.1449 H         1 <0>         0.0715 
      48 H20       -0.6239   -1.6992   -3.2443 H         1 <0>         0.0728 
      49 H21        0.8341    0.3001   -3.1187 H         1 <0>         0.0706 
      50 H22       -0.7828    0.7576   -3.6378 H         1 <0>         0.0661 
      51 H23       -1.3433    1.4867   -1.3423 H         1 <0>         0.0735 
      52 H24        0.0889    2.3293   -1.9189 H         1 <0>         0.0762 
      53 H25        1.5417    0.7830   -0.6400 H         1 <0>         0.0928 
      54 H26        0.3783    1.5586    0.4258 H         1 <0>         0.0829 
@<TRIPOS>BOND
       1        1        2 1        
       2        1       29 1        
       3        1       30 1        
       4        1       31 1        
       5        2        3 1        
       6        2       32 1        
       7        2       33 1        
       8        3        4 2        
       9        3        5 am       
      10        5        6 1        
      11        5       34 1        
      12        6        7 1        
      13        6       35 1        
      14        6       36 1        
      15        7        8 2        
      16        7        9 1        
      17        9       10 1        
      18       10       11 1        
      19       10       12 1        
      20       10       37 1        
      21       11       38 1        
      22       11       39 1        
      23       11       40 1        
      24       12       13 2        
      25       12       14 am       
      26       14       15 1        
      27       14       41 1        
      28       15       20 ar       
      29       15       16 ar       
      30       16       17 ar       
      31       16       42 1        
      32       17       18 ar       
      33       17       43 1        
      34       18       23 1        
      35       18       19 ar       
      36       19       20 ar       
      37       19       21 1        
      38       20       44 1        
      39       21       22 1        
      40       22       28 1        
      41       22       23 1        
      42       22       24 1        
      43       24       25 1        
      44       24       45 1        
      45       24       46 1        
      46       25       26 1        
      47       25       47 1        
      48       25       48 1        
      49       26       27 1        
      50       26       49 1        
      51       26       50 1        
      52       27       28 1        
      53       27       51 1        
      54       27       52 1        
      55       28       53 1        
      56       28       54 1        

