#        1GCZ_R01_S0001_C0000_L00012_S0001_C0045_G0010_E0001.mol2
#        Tue Jun  6 09:59:14 2017
#        Descriptor:      8    23    36     8    10    13
#        Energy - RMSD - RMSD MassCentre:     -75.8500    999.9999    999.9999
#        Receptor:       1  Surface Point:     1  Conformer:     0
#        Ligand:        12  Surface Point:     1  Conformer:    45
#        BUDE Formal Charge: 0
#        ATOM Count: 54
#        Heavy ATOM Count: 28
@<TRIPOS>MOLECULE
ZINC61282011_1GCZ_R01_S0001_C0000_L00012_S0001_C0045_G0010_E0001
 54 56 0 0 0
SMALL
USER_CHARGES
@<TRIPOS>ATOM
       1 C1        -1.5033    7.2282   10.8527 C.3       1 <0>        -0.1394 
       2 C2        -1.2308    6.2957    9.6759 C.3       1 <0>        -0.1416 
       3 C3        -1.2165    4.8658   10.1608 C.2       1 <0>         0.5168 
       4 O1        -1.4088    4.6167   11.3498 O.2       1 <0>        -0.5327 
       5 N1        -0.9960    3.8748    9.3016 N.am      1 <0>        -0.7288 
       6 C4        -0.7663    4.1723    7.8805 C.3       1 <0>         0.1281 
       7 C5         0.6390    4.6937    7.6971 C.2       1 <0>         0.4647 
       8 O2         0.8172    5.8177    7.3329 O.2       1 <0>        -0.5000 
       9 O3         1.6945    3.8893    7.9446 O.3       1 <0>        -0.3169 
      10 C6         1.4317    2.5523    8.3784 C.3       1 <0>         0.0729 
      11 C7         2.7509    1.8429    8.6704 C.3       1 <0>        -0.1704 
      12 C8         0.6908    1.8085    7.2931 C.2       1 <0>         0.5166 
      13 O4        -0.4143    1.3207    7.5250 O.2       1 <0>        -0.4890 
      14 N2         1.2333    1.6808    6.0855 N.am      1 <0>        -0.6633 
      15 C9         0.5402    0.9843    5.0675 C.ar      1 <0>         0.1513 
      16 C10       -0.7726    0.5614    5.3071 C.ar      1 <0>        -0.1318 
      17 C11       -1.5061   -0.1315    4.3365 C.ar      1 <0>        -0.0823 
      18 C12       -0.8573   -0.3759    3.1203 C.ar      1 <0>         0.0206 
      19 C13        0.4539    0.0563    2.8886 C.ar      1 <0>         0.0545 
      20 C14        1.1990    0.7482    3.8509 C.ar      1 <0>        -0.1051 
      21 O5         0.8952   -0.3774    1.6404 O.3       1 <0>        -0.2879 
      22 C15       -0.3891   -0.6367    1.0679 C.3       1 <0>         0.2651 
      23 O6        -1.3710   -1.0289    2.0308 O.3       1 <0>        -0.2965 
      24 C16       -0.2325   -1.7892   -0.0500 C.3       1 <0>        -0.1489 
      25 C17        0.7265   -1.3379   -1.1672 C.3       1 <0>        -0.1151 
      26 C18        0.2411   -0.0191   -1.7971 C.3       1 <0>        -0.1246 
      27 C19        0.1188    1.0878   -0.7334 C.3       1 <0>        -0.1168 
      28 C20       -0.8357    0.6790    0.4039 C.3       1 <0>        -0.1129 
      29 H1        -0.7149    7.1154   11.5940 H         1 <0>         0.0628 
      30 H2        -1.5267    8.2575   10.5010 H         1 <0>         0.0629 
      31 H3        -2.4620    6.9753   11.3006 H         1 <0>         0.0642 
      32 H4        -0.2657    6.5385    9.2359 H         1 <0>         0.0966 
      33 H5        -2.0119    6.4166    8.9281 H         1 <0>         0.0967 
      34 H6        -0.9862    2.9179    9.6248 H         1 <0>         0.4129 
      35 H7        -0.8953    3.2653    7.2939 H         1 <0>         0.1177 
      36 H8        -1.4780    4.9247    7.5471 H         1 <0>         0.1174 
      37 H9         0.8244    2.5757    9.2807 H         1 <0>         0.1170 
      38 H10        3.3625    1.8311    7.7706 H         1 <0>         0.0784 
      39 H11        3.2786    2.3711    9.4615 H         1 <0>         0.0805 
      40 H12        2.5502    0.8213    8.9866 H         1 <0>         0.0845 
      41 H13        2.1406    2.0814    5.8951 H         1 <0>         0.4164 
      42 H14       -1.2341    0.7737    6.2602 H         1 <0>         0.1427 
      43 H15       -2.5191   -0.4580    4.5197 H         1 <0>         0.1415 
      44 H16        2.2090    1.0737    3.6498 H         1 <0>         0.1512 
      45 H17        0.1384   -2.7059    0.4034 H         1 <0>         0.0736 
      46 H18       -1.2123   -2.0051   -0.4710 H         1 <0>         0.0900 
      47 H19        0.7752   -2.1057   -1.9365 H         1 <0>         0.0715 
      48 H20        1.7280   -1.2038   -0.7641 H         1 <0>         0.0728 
      49 H21        0.9464    0.2974   -2.5627 H         1 <0>         0.0706 
      50 H22       -0.7238   -0.1729   -2.2756 H         1 <0>         0.0661 
      51 H23       -0.2566    1.9948   -1.2027 H         1 <0>         0.0735 
      52 H24        1.1018    1.3072   -0.3218 H         1 <0>         0.0762 
      53 H25       -0.8587    1.4630    1.1577 H         1 <0>         0.0928 
      54 H26       -1.8434    0.5672    0.0092 H         1 <0>         0.0829 
@<TRIPOS>BOND
       1        1        2 1        
       2        1       29 1        
       3        1       30 1        
       4        1       31 1        
       5        2        3 1        
       6        2       32 1        
       7        2       33 1        
       8        3        4 2        
       9        3        5 am       
      10        5        6 1        
      11        5       34 1        
      12        6        7 1        
      13        6       35 1        
      14        6       36 1        
      15        7        8 2        
      16        7        9 1        
      17        9       10 1        
      18       10       11 1        
      19       10       12 1        
      20       10       37 1        
      21       11       38 1        
      22       11       39 1        
      23       11       40 1        
      24       12       13 2        
      25       12       14 am       
      26       14       15 1        
      27       14       41 1        
      28       15       20 ar       
      29       15       16 ar       
      30       16       17 ar       
      31       16       42 1        
      32       17       18 ar       
      33       17       43 1        
      34       18       23 1        
      35       18       19 ar       
      36       19       20 ar       
      37       19       21 1        
      38       20       44 1        
      39       21       22 1        
      40       22       28 1        
      41       22       23 1        
      42       22       24 1        
      43       24       25 1        
      44       24       45 1        
      45       24       46 1        
      46       25       26 1        
      47       25       47 1        
      48       25       48 1        
      49       26       27 1        
      50       26       49 1        
      51       26       50 1        
      52       27       28 1        
      53       27       51 1        
      54       27       52 1        
      55       28       53 1        
      56       28       54 1        

