#        1GCZ_R01_S0001_C0000_L00003_S0001_C0021_G0010_E0001.mol2
#        Tue Jun  6 14:04:08 2017
#        Descriptor:     13    24    36     9     3    15
#        Energy - RMSD - RMSD MassCentre:     -58.8408    999.9999    999.9999
#        Receptor:       1  Surface Point:     1  Conformer:     0
#        Ligand:         3  Surface Point:     1  Conformer:    21
#        BUDE Formal Charge: 0
#        ATOM Count: 58
#        Heavy ATOM Count: 30
@<TRIPOS>MOLECULE
ZINC61580633_1GCZ_R01_S0001_C0000_L00003_S0001_C0021_G0010_E0001
 58 59 0 0 0
SMALL
USER_CHARGES
@<TRIPOS>ATOM
       1 C1         8.2007   -4.6189    4.1825 C.3       1 <0>        -0.1532 
       2 C2         7.1515   -4.0358    3.2402 C.3       1 <0>        -0.1224 
       3 C3         5.9089   -3.6482    4.0404 C.3       1 <0>        -0.1198 
       4 C4         5.3311   -4.8909    4.7161 C.3       1 <0>         0.0610 
       5 O1         4.1682   -4.5282    5.4650 O.3       1 <0>        -0.3878 
       6 C5         3.5820   -5.6552    6.1217 C.3       1 <0>         0.0487 
       7 C6         2.3483   -5.2040    6.9020 C.3       1 <0>         0.1244 
       8 N1         1.7459   -6.3624    7.5772 N.am      1 <0>        -0.7216 
       9 C7         1.1016   -7.2844    6.8673 C.2       1 <0>         0.5161 
      10 O2         1.0096   -7.1683    5.6463 O.2       1 <0>        -0.5151 
      11 C8         0.4828   -8.4744    7.5609 C.3       1 <0>         0.0490 
      12 O3        -0.6409   -8.0436    8.3333 O.3       1 <0>        -0.3194 
      13 C9        -1.3261   -8.9760    9.0288 C.2       1 <0>         0.5417 
      14 O4        -0.9811  -10.1455    8.9864 O.2       1 <0>        -0.5337 
      15 C10       -2.4964   -8.5792    9.8429 C.2       1 <0>        -0.2559 
      16 C11       -3.3244   -9.5194   10.6310 C.2       1 <0>        -0.0791 
      17 C12       -4.3275   -8.9065   11.2637 C.2       1 <0>        -0.2585 
      18 S1        -4.3544   -7.1613   10.9706 S.3       1 <0>         0.3028 
      19 C13       -2.9285   -7.3141    9.9333 C.2       1 <0>         0.0893 
      20 N2        -2.3130   -6.2840    9.2723 N.am      1 <0>        -0.6099 
      21 C14       -2.7779   -5.0436    9.3922 C.2       1 <0>         0.5551 
      22 O5        -3.7610   -4.8212   10.0971 O.2       1 <0>        -0.4939 
      23 C15       -2.1117   -3.9320    8.6775 C.ar      1 <0>        -0.1466 
      24 C16       -2.6362   -2.6428    8.8295 C.ar      1 <0>        -0.0772 
      25 C17       -2.0952   -1.5630    8.1215 C.ar      1 <0>        -0.1241 
      26 C18       -1.0252   -1.7545    7.2396 C.ar      1 <0>        -0.0446 
      27 C19       -0.4647   -3.0323    7.1259 C.ar      1 <0>        -0.1261 
      28 C20       -0.9899   -4.1039    7.8579 C.ar      1 <0>        -0.0460 
      29 C21       -0.4964   -0.5887    6.4386 C.3       1 <0>        -0.0928 
      30 C22       -1.2406   -0.5070    5.1090 C.3       1 <0>        -0.1485 
      31 H1         7.8003   -5.5085    4.6642 H         1 <0>         0.0567 
      32 H2         8.4580   -3.8808    4.9391 H         1 <0>         0.0554 
      33 H3         9.0906   -4.8825    3.6148 H         1 <0>         0.0557 
      34 H4         7.5554   -3.1532    2.7484 H         1 <0>         0.0632 
      35 H5         6.8830   -4.7781    2.4915 H         1 <0>         0.0635 
      36 H6         6.1788   -2.9163    4.7988 H         1 <0>         0.0711 
      37 H7         5.1648   -3.2207    3.3715 H         1 <0>         0.0704 
      38 H8         5.0600   -5.6234    3.9585 H         1 <0>         0.0498 
      39 H9         6.0741   -5.3188    5.3859 H         1 <0>         0.0505 
      40 H10        4.3046   -6.0921    6.8079 H         1 <0>         0.0584 
      41 H11        3.2906   -6.3965    5.3806 H         1 <0>         0.0702 
      42 H12        1.6246   -4.7677    6.2169 H         1 <0>         0.0872 
      43 H13        2.6387   -4.4632    7.6441 H         1 <0>         0.0805 
      44 H14        1.8208   -6.4588    8.5798 H         1 <0>         0.4058 
      45 H15        0.1551   -9.1982    6.8176 H         1 <0>         0.1008 
      46 H16        1.2180   -8.9351    8.2172 H         1 <0>         0.0999 
      47 H17       -3.1147  -10.5775   10.6836 H         1 <0>         0.1557 
      48 H18       -5.0300   -9.4317   11.8936 H         1 <0>         0.1929 
      49 H19       -1.5057   -6.4666    8.6935 H         1 <0>         0.4317 
      50 H20       -3.4698   -2.4777    9.4960 H         1 <0>         0.1287 
      51 H21       -2.5041   -0.5720    8.2515 H         1 <0>         0.1326 
      52 H22        0.3802   -3.1785    6.4693 H         1 <0>         0.1342 
      53 H23       -0.4799   -5.0523    7.7750 H         1 <0>         0.1410 
      54 H24        0.5662   -0.7300    6.2521 H         1 <0>         0.0777 
      55 H25       -0.6478    0.3326    6.9970 H         1 <0>         0.0771 
      56 H26       -2.3012   -0.3532    5.2966 H         1 <0>         0.0623 
      57 H27       -1.1000   -1.4345    4.5577 H         1 <0>         0.0572 
      58 H28       -0.8504    0.3248    4.5263 H         1 <0>         0.0578 
@<TRIPOS>BOND
       1        1        2 1        
       2        1       31 1        
       3        1       32 1        
       4        1       33 1        
       5        2        3 1        
       6        2       34 1        
       7        2       35 1        
       8        3        4 1        
       9        3       36 1        
      10        3       37 1        
      11        4        5 1        
      12        4       38 1        
      13        4       39 1        
      14        5        6 1        
      15        6        7 1        
      16        6       40 1        
      17        6       41 1        
      18        7        8 1        
      19        7       42 1        
      20        7       43 1        
      21        8        9 am       
      22        8       44 1        
      23        9       10 2        
      24        9       11 1        
      25       11       12 1        
      26       11       45 1        
      27       11       46 1        
      28       12       13 1        
      29       13       14 2        
      30       13       15 1        
      31       15       19 2        
      32       15       16 1        
      33       16       17 2        
      34       16       47 1        
      35       17       18 1        
      36       17       48 1        
      37       18       19 1        
      38       19       20 1        
      39       20       21 am       
      40       20       49 1        
      41       21       22 2        
      42       21       23 1        
      43       23       28 ar       
      44       23       24 ar       
      45       24       25 ar       
      46       24       50 1        
      47       25       26 ar       
      48       25       51 1        
      49       26       27 ar       
      50       26       29 1        
      51       27       28 ar       
      52       27       52 1        
      53       28       53 1        
      54       29       30 1        
      55       29       54 1        
      56       29       55 1        
      57       30       56 1        
      58       30       57 1        
      59       30       58 1        

