#        1GCZ_R01_S0001_C0000_L00012_S0001_C0046_G0010_E0001.mol2
#        Tue Jun  6 09:59:15 2017
#        Descriptor:      5    23    15     8     9    11
#        Energy - RMSD - RMSD MassCentre:     -81.1311    999.9999    999.9999
#        Receptor:       1  Surface Point:     1  Conformer:     0
#        Ligand:        12  Surface Point:     1  Conformer:    46
#        BUDE Formal Charge: 0
#        ATOM Count: 54
#        Heavy ATOM Count: 28
@<TRIPOS>MOLECULE
ZINC61282011_1GCZ_R01_S0001_C0000_L00012_S0001_C0046_G0010_E0001
 54 56 0 0 0
SMALL
USER_CHARGES
@<TRIPOS>ATOM
       1 C1         3.0866    3.6450    6.1206 C.3       1 <0>        -0.1394 
       2 C2         1.9424    3.3257    7.0785 C.3       1 <0>        -0.1416 
       3 C3         2.3089    2.1237    7.9158 C.2       1 <0>         0.5168 
       4 O1         3.3960    1.5708    7.7569 O.2       1 <0>        -0.5327 
       5 N1         1.4555    1.6625    8.8258 N.am      1 <0>        -0.7288 
       6 C4         0.1563    2.3234    9.0157 C.3       1 <0>         0.1281 
       7 C5        -0.7743    1.9345    7.8919 C.2       1 <0>         0.4647 
       8 O2        -1.1547    2.7606    7.1170 O.2       1 <0>        -0.5000 
       9 O3        -1.1769    0.6524    7.7626 O.3       1 <0>        -0.3169 
      10 C6        -2.0582    0.3316    6.6832 C.3       1 <0>         0.0729 
      11 C7        -2.4455   -1.1422    6.7622 C.3       1 <0>        -0.1704 
      12 C8        -1.3621    0.5985    5.3700 C.2       1 <0>         0.5166 
      13 O4        -0.1953    0.9875    5.3594 O.2       1 <0>        -0.4890 
      14 N2        -2.0110    0.4128    4.2240 N.am      1 <0>        -0.6633 
      15 C9        -1.3601    0.6622    2.9928 C.ar      1 <0>         0.1513 
      16 C10       -0.0318    1.1043    3.0044 C.ar      1 <0>        -0.1318 
      17 C11        0.6616    1.3667    1.8168 C.ar      1 <0>        -0.0823 
      18 C12       -0.0431    1.1632    0.6243 C.ar      1 <0>         0.0206 
      19 C13       -1.3694    0.7152    0.6235 C.ar      1 <0>         0.0545 
      20 C14       -2.0750    0.4510    1.8034 C.ar      1 <0>        -0.1051 
      21 O5        -1.8660    0.6694   -0.6773 O.3       1 <0>        -0.2879 
      22 C15       -0.6082    0.6600   -1.3573 C.3       1 <0>         0.2651 
      23 O6         0.4246    1.3511   -0.6496 O.3       1 <0>        -0.2965 
      24 C16       -0.7432    1.3259   -2.8260 C.3       1 <0>        -0.1489 
      25 C17        0.5550    1.1416   -3.6335 C.3       1 <0>        -0.1151 
      26 C18        0.9209   -0.3507   -3.7370 C.3       1 <0>        -0.1246 
      27 C19        1.0723   -0.9796   -2.3394 C.3       1 <0>        -0.1168 
      28 C20       -0.2114   -0.8207   -1.5035 C.3       1 <0>        -0.1129 
      29 H1         3.2555    2.7954    5.4623 H         1 <0>         0.0628 
      30 H2         2.8280    4.5190    5.5265 H         1 <0>         0.0629 
      31 H3         3.9905    3.8479    6.6912 H         1 <0>         0.0642 
      32 H4         1.0414    3.1088    6.5085 H         1 <0>         0.0966 
      33 H5         1.7642    4.1793    7.7291 H         1 <0>         0.0967 
      34 H6         1.6995    0.8586    9.3864 H         1 <0>         0.4129 
      35 H7        -0.2739    2.0131    9.9656 H         1 <0>         0.1177 
      36 H8         0.2939    3.4026    9.0146 H         1 <0>         0.1174 
      37 H9        -2.9533    0.9465    6.7498 H         1 <0>         0.1170 
      38 H10       -1.5485   -1.7557    6.7079 H         1 <0>         0.0784 
      39 H11       -2.9589   -1.3318    7.7025 H         1 <0>         0.0805 
      40 H12       -3.1046   -1.3884    5.9323 H         1 <0>         0.0845 
      41 H13       -2.9690    0.0934    4.2327 H         1 <0>         0.4164 
      42 H14        0.4732    1.2460    3.9484 H         1 <0>         0.1427 
      43 H15        1.6864    1.7075    1.8240 H         1 <0>         0.1415 
      44 H16       -3.0976    0.1046    1.7790 H         1 <0>         0.1512 
      45 H17       -1.5766    0.8801   -3.3649 H         1 <0>         0.0736 
      46 H18       -0.9574    2.3863   -2.7105 H         1 <0>         0.0900 
      47 H19        1.3663    1.6763   -3.1442 H         1 <0>         0.0715 
      48 H20        0.4332    1.5583   -4.6311 H         1 <0>         0.0728 
      49 H21        0.1413   -0.8774   -4.2835 H         1 <0>         0.0706 
      50 H22        1.8508   -0.4641   -4.2903 H         1 <0>         0.0661 
      51 H23        1.8970   -0.4982   -1.8180 H         1 <0>         0.0735 
      52 H24        1.3123   -2.0360   -2.4398 H         1 <0>         0.0762 
      53 H25       -1.0264   -1.3572   -1.9847 H         1 <0>         0.0928 
      54 H26       -0.0599   -1.2590   -0.5193 H         1 <0>         0.0829 
@<TRIPOS>BOND
       1        1        2 1        
       2        1       29 1        
       3        1       30 1        
       4        1       31 1        
       5        2        3 1        
       6        2       32 1        
       7        2       33 1        
       8        3        4 2        
       9        3        5 am       
      10        5        6 1        
      11        5       34 1        
      12        6        7 1        
      13        6       35 1        
      14        6       36 1        
      15        7        8 2        
      16        7        9 1        
      17        9       10 1        
      18       10       11 1        
      19       10       12 1        
      20       10       37 1        
      21       11       38 1        
      22       11       39 1        
      23       11       40 1        
      24       12       13 2        
      25       12       14 am       
      26       14       15 1        
      27       14       41 1        
      28       15       20 ar       
      29       15       16 ar       
      30       16       17 ar       
      31       16       42 1        
      32       17       18 ar       
      33       17       43 1        
      34       18       23 1        
      35       18       19 ar       
      36       19       20 ar       
      37       19       21 1        
      38       20       44 1        
      39       21       22 1        
      40       22       28 1        
      41       22       23 1        
      42       22       24 1        
      43       24       25 1        
      44       24       45 1        
      45       24       46 1        
      46       25       26 1        
      47       25       47 1        
      48       25       48 1        
      49       26       27 1        
      50       26       49 1        
      51       26       50 1        
      52       27       28 1        
      53       27       51 1        
      54       27       52 1        
      55       28       53 1        
      56       28       54 1        

