#        1GCZ_R01_S0001_C0000_L00012_S0001_C0046_G0010_E0001.mol2
#        Tue Jun  6 14:14:28 2017
#        Descriptor:      6    24    10     8     8    10
#        Energy - RMSD - RMSD MassCentre:     -72.3452    999.9999    999.9999
#        Receptor:       1  Surface Point:     1  Conformer:     0
#        Ligand:        12  Surface Point:     1  Conformer:    46
#        BUDE Formal Charge: 0
#        ATOM Count: 54
#        Heavy ATOM Count: 28
@<TRIPOS>MOLECULE
ZINC61282011_1GCZ_R01_S0001_C0000_L00012_S0001_C0046_G0010_E0001
 54 56 0 0 0
SMALL
USER_CHARGES
@<TRIPOS>ATOM
       1 C1         3.6167   -1.8080    5.1485 C.3       1 <0>        -0.1394 
       2 C2         2.6617   -1.1846    6.1626 C.3       1 <0>        -0.1416 
       3 C3         1.7746   -2.2595    6.7438 C.2       1 <0>         0.5168 
       4 O1         1.8986   -3.4264    6.3752 O.2       1 <0>        -0.5327 
       5 N1         0.8585   -1.9443    7.6550 N.am      1 <0>        -0.7288 
       6 C4         0.7105   -0.5498    8.0957 C.3       1 <0>         0.1281 
       7 C5        -0.0206    0.2375    7.0345 C.2       1 <0>         0.4647 
       8 O2         0.5372    1.1205    6.4540 O.2       1 <0>        -0.5000 
       9 O3        -1.3051   -0.0564    6.7415 O.3       1 <0>        -0.3169 
      10 C6        -1.9560    0.7163    5.7295 C.3       1 <0>         0.0729 
      11 C7        -3.4112    0.2735    5.6073 C.3       1 <0>        -0.1704 
      12 C8        -1.2546    0.5072    4.4087 C.2       1 <0>         0.5166 
      13 O4        -0.3060   -0.2720    4.3319 O.2       1 <0>        -0.4890 
      14 N2        -1.6628    1.1658    3.3279 N.am      1 <0>        -0.6633 
      15 C9        -1.0066    0.9709    2.0895 C.ar      1 <0>         0.1513 
      16 C10        0.0707    0.0793    2.0250 C.ar      1 <0>        -0.1318 
      17 C11        0.7568   -0.1527    0.8270 C.ar      1 <0>        -0.0823 
      18 C12        0.3077    0.5522   -0.2962 C.ar      1 <0>         0.0206 
      19 C13       -0.7744    1.4372   -0.2223 C.ar      1 <0>         0.0545 
      20 C14       -1.4678    1.6798    0.9693 C.ar      1 <0>        -0.1051 
      21 O5        -0.9711    2.0677   -1.4490 O.3       1 <0>        -0.2879 
      22 C15       -0.2558    1.1303   -2.2578 C.3       1 <0>         0.2651 
      23 O6         0.8181    0.4874   -1.5660 O.3       1 <0>        -0.2965 
      24 C16        0.3535    1.8516   -3.5720 C.3       1 <0>        -0.1489 
      25 C17        0.9531    0.8140   -4.5392 C.3       1 <0>        -0.1151 
      26 C18       -0.1027   -0.2376   -4.9277 C.3       1 <0>        -0.1246 
      27 C19       -0.6663   -0.9407   -3.6787 C.3       1 <0>        -0.1168 
      28 C20       -1.2820    0.0664   -2.6897 C.3       1 <0>        -0.1129 
      29 H1         3.0432   -2.2645    4.3443 H         1 <0>         0.0628 
      30 H2         4.2647   -1.0357    4.7394 H         1 <0>         0.0629 
      31 H3         4.2215   -2.5672    5.6398 H         1 <0>         0.0642 
      32 H4         2.0467   -0.4350    5.6692 H         1 <0>         0.0966 
      33 H5         3.2342   -0.7170    6.9609 H         1 <0>         0.0967 
      34 H6         0.2646   -2.6624    8.0446 H         1 <0>         0.4129 
      35 H7         0.1431   -0.5201    9.0235 H         1 <0>         0.1177 
      36 H8         1.6938   -0.1133    8.2571 H         1 <0>         0.1174 
      37 H9        -1.9183    1.7703    5.9965 H         1 <0>         0.1170 
      38 H10       -3.4478   -0.7836    5.3525 H         1 <0>         0.0784 
      39 H11       -3.9201    0.4365    6.5549 H         1 <0>         0.0805 
      40 H12       -3.9015    0.8523    4.8273 H         1 <0>         0.0845 
      41 H13       -2.4417    1.8056    3.3910 H         1 <0>         0.4164 
      42 H14        0.3818   -0.4442    2.9169 H         1 <0>         0.1427 
      43 H15        1.5879   -0.8404    0.7754 H         1 <0>         0.1415 
      44 H16       -2.3011    2.3660    1.0028 H         1 <0>         0.1512 
      45 H17       -0.4214    2.4216   -4.0803 H         1 <0>         0.0736 
      46 H18        1.1246    2.5527   -3.2600 H         1 <0>         0.0900 
      47 H19        1.7952    0.3170   -4.0623 H         1 <0>         0.0715 
      48 H20        1.3208    1.3110   -5.4344 H         1 <0>         0.0728 
      49 H21       -0.9166    0.2474   -5.4627 H         1 <0>         0.0706 
      50 H22        0.3404   -0.9758   -5.5927 H         1 <0>         0.0661 
      51 H23        0.1354   -1.4821   -3.1809 H         1 <0>         0.0735 
      52 H24       -1.4217   -1.6642   -3.9783 H         1 <0>         0.0762 
      53 H25       -2.1282    0.5642   -3.1584 H         1 <0>         0.0928 
      54 H26       -1.6511   -0.4641   -1.8145 H         1 <0>         0.0829 
@<TRIPOS>BOND
       1        1        2 1        
       2        1       29 1        
       3        1       30 1        
       4        1       31 1        
       5        2        3 1        
       6        2       32 1        
       7        2       33 1        
       8        3        4 2        
       9        3        5 am       
      10        5        6 1        
      11        5       34 1        
      12        6        7 1        
      13        6       35 1        
      14        6       36 1        
      15        7        8 2        
      16        7        9 1        
      17        9       10 1        
      18       10       11 1        
      19       10       12 1        
      20       10       37 1        
      21       11       38 1        
      22       11       39 1        
      23       11       40 1        
      24       12       13 2        
      25       12       14 am       
      26       14       15 1        
      27       14       41 1        
      28       15       20 ar       
      29       15       16 ar       
      30       16       17 ar       
      31       16       42 1        
      32       17       18 ar       
      33       17       43 1        
      34       18       23 1        
      35       18       19 ar       
      36       19       20 ar       
      37       19       21 1        
      38       20       44 1        
      39       21       22 1        
      40       22       28 1        
      41       22       23 1        
      42       22       24 1        
      43       24       25 1        
      44       24       45 1        
      45       24       46 1        
      46       25       26 1        
      47       25       47 1        
      48       25       48 1        
      49       26       27 1        
      50       26       49 1        
      51       26       50 1        
      52       27       28 1        
      53       27       51 1        
      54       27       52 1        
      55       28       53 1        
      56       28       54 1        

