#        1GCZ_R01_S0001_C0000_L00012_S0001_C0047_G0010_E0001.mol2
#        Tue Jun  6 09:59:16 2017
#        Descriptor:      7    24    13     7     7    11
#        Energy - RMSD - RMSD MassCentre:     -74.0380    999.9999    999.9999
#        Receptor:       1  Surface Point:     1  Conformer:     0
#        Ligand:        12  Surface Point:     1  Conformer:    47
#        BUDE Formal Charge: 0
#        ATOM Count: 54
#        Heavy ATOM Count: 28
@<TRIPOS>MOLECULE
ZINC61282011_1GCZ_R01_S0001_C0000_L00012_S0001_C0047_G0010_E0001
 54 56 0 0 0
SMALL
USER_CHARGES
@<TRIPOS>ATOM
       1 C1        -0.9491   -5.5239    7.5402 C.3       1 <0>        -0.1394 
       2 C2        -1.3926   -5.4425    8.9981 C.3       1 <0>        -0.1416 
       3 C3        -1.7950   -4.0238    9.3224 C.2       1 <0>         0.5168 
       4 O1        -2.9434   -3.7775    9.6875 O.2       1 <0>        -0.5327 
       5 N1        -0.9069   -3.0397    9.2134 N.am      1 <0>        -0.7288 
       6 C4        -1.2987   -1.6586    9.5292 C.3       1 <0>         0.1281 
       7 C5        -2.1170   -1.0959    8.3917 C.2       1 <0>         0.4647 
       8 O2        -3.2657   -0.8144    8.5631 O.2       1 <0>        -0.5000 
       9 O3        -1.5506   -0.9108    7.1803 O.3       1 <0>        -0.3169 
      10 C6        -2.3651   -0.3755    6.1339 C.3       1 <0>         0.0729 
      11 C7        -3.5461   -1.3078    5.8798 C.3       1 <0>        -0.1704 
      12 C8        -1.5442   -0.2494    4.8728 C.2       1 <0>         0.5166 
      13 O4        -0.3739   -0.6278    4.8595 O.2       1 <0>        -0.4890 
      14 N2        -2.0868    0.2710    3.7758 N.am      1 <0>        -0.6633 
      15 C9        -1.3189    0.3897    2.5933 C.ar      1 <0>         0.1513 
      16 C10        0.0110   -0.0474    2.6008 C.ar      1 <0>        -0.1318 
      17 C11        0.8173    0.0456    1.4601 C.ar      1 <0>        -0.0823 
      18 C12        0.2228    0.5964    0.3185 C.ar      1 <0>         0.0206 
      19 C13       -1.1098    1.0251    0.3199 C.ar      1 <0>         0.0545 
      20 C14       -1.9264    0.9397    1.4538 C.ar      1 <0>        -0.1051 
      21 O5        -1.4355    1.6032   -0.9052 O.3       1 <0>        -0.2879 
      22 C15       -0.3724    1.0303   -1.6707 C.3       1 <0>         0.2651 
      23 O6         0.8102    0.7852   -0.9048 O.3       1 <0>        -0.2965 
      24 C16        0.0233    1.9889   -2.9130 C.3       1 <0>        -0.1489 
      25 C17        1.0267    1.2890   -3.8482 C.3       1 <0>        -0.1151 
      26 C18        0.4573   -0.0521   -4.3470 C.3       1 <0>        -0.1246 
      27 C19        0.1020   -0.9739   -3.1655 C.3       1 <0>        -0.1168 
      28 C20       -0.9068   -0.3092   -2.2105 C.3       1 <0>        -0.1129 
      29 H1        -0.0929   -4.8706    7.3853 H         1 <0>         0.0628 
      30 H2        -0.6717   -6.5487    7.3029 H         1 <0>         0.0629 
      31 H3        -1.7670   -5.2101    6.8950 H         1 <0>         0.0642 
      32 H4        -0.5708   -5.7427    9.6449 H         1 <0>         0.0966 
      33 H5        -2.2409   -6.1049    9.1573 H         1 <0>         0.0967 
      34 H6         0.0365   -3.2407    8.9139 H         1 <0>         0.4129 
      35 H7        -1.8916   -1.6486   10.4413 H         1 <0>         0.1177 
      36 H8        -0.4071   -1.0509    9.6689 H         1 <0>         0.1174 
      37 H9        -2.7332    0.6058    6.4258 H         1 <0>         0.1170 
      38 H10       -3.1767   -2.2922    5.6001 H         1 <0>         0.0784 
      39 H11       -4.1451   -1.3881    6.7845 H         1 <0>         0.0805 
      40 H12       -4.1572   -0.9067    5.0739 H         1 <0>         0.0845 
      41 H13       -3.0477    0.5816    3.7868 H         1 <0>         0.4164 
      42 H14        0.4275   -0.4676    3.5042 H         1 <0>         0.1427 
      43 H15        1.8433   -0.2915    1.4641 H         1 <0>         0.1415 
      44 H16       -2.9526    1.2754    1.4316 H         1 <0>         0.1512 
      45 H17       -0.8680    2.2651   -3.4724 H         1 <0>         0.0736 
      46 H18        0.4616    2.9046   -2.5220 H         1 <0>         0.0900 
      47 H19        1.9561    1.1066   -3.3129 H         1 <0>         0.0715 
      48 H20        1.2503    1.9301   -4.6983 H         1 <0>         0.0728 
      49 H21       -0.4374    0.1321   -4.9382 H         1 <0>         0.0706 
      50 H22        1.1849   -0.5453   -4.9880 H         1 <0>         0.0661 
      51 H23        1.0085   -1.2132   -2.6136 H         1 <0>         0.0735 
      52 H24       -0.3144   -1.9054   -3.5433 H         1 <0>         0.0762 
      53 H25       -1.8408   -0.1281   -2.7381 H         1 <0>         0.0928 
      54 H26       -1.1180   -0.9810   -1.3812 H         1 <0>         0.0829 
@<TRIPOS>BOND
       1        1        2 1        
       2        1       29 1        
       3        1       30 1        
       4        1       31 1        
       5        2        3 1        
       6        2       32 1        
       7        2       33 1        
       8        3        4 2        
       9        3        5 am       
      10        5        6 1        
      11        5       34 1        
      12        6        7 1        
      13        6       35 1        
      14        6       36 1        
      15        7        8 2        
      16        7        9 1        
      17        9       10 1        
      18       10       11 1        
      19       10       12 1        
      20       10       37 1        
      21       11       38 1        
      22       11       39 1        
      23       11       40 1        
      24       12       13 2        
      25       12       14 am       
      26       14       15 1        
      27       14       41 1        
      28       15       20 ar       
      29       15       16 ar       
      30       16       17 ar       
      31       16       42 1        
      32       17       18 ar       
      33       17       43 1        
      34       18       23 1        
      35       18       19 ar       
      36       19       20 ar       
      37       19       21 1        
      38       20       44 1        
      39       21       22 1        
      40       22       28 1        
      41       22       23 1        
      42       22       24 1        
      43       24       25 1        
      44       24       45 1        
      45       24       46 1        
      46       25       26 1        
      47       25       47 1        
      48       25       48 1        
      49       26       27 1        
      50       26       49 1        
      51       26       50 1        
      52       27       28 1        
      53       27       51 1        
      54       27       52 1        
      55       28       53 1        
      56       28       54 1        

