#        1GCZ_R01_S0001_C0000_L00012_S0001_C0047_G0010_E0001.mol2
#        Tue Jun  6 14:14:30 2017
#        Descriptor:      3    25    25     8    10    11
#        Energy - RMSD - RMSD MassCentre:     -77.7770    999.9999    999.9999
#        Receptor:       1  Surface Point:     1  Conformer:     0
#        Ligand:        12  Surface Point:     1  Conformer:    47
#        BUDE Formal Charge: 0
#        ATOM Count: 54
#        Heavy ATOM Count: 28
@<TRIPOS>MOLECULE
ZINC61282011_1GCZ_R01_S0001_C0000_L00012_S0001_C0047_G0010_E0001
 54 56 0 0 0
SMALL
USER_CHARGES
@<TRIPOS>ATOM
       1 C1         0.5062    6.9252    7.0704 C.3       1 <0>        -0.1394 
       2 C2         0.4513    6.9351    8.5954 C.3       1 <0>        -0.1416 
       3 C3         0.1393    5.5451    9.0960 C.2       1 <0>         0.5168 
       4 O1         0.9385    4.9592    9.8247 O.2       1 <0>        -0.5327 
       5 N1        -1.0004    4.9539    8.7488 N.am      1 <0>        -0.7288 
       6 C4        -1.3040    3.6008    9.2362 C.3       1 <0>         0.1281 
       7 C5        -0.4990    2.5920    8.4523 C.2       1 <0>         0.4647 
       8 O2         0.3404    1.9409    8.9997 O.2       1 <0>        -0.5000 
       9 O3        -0.7276    2.4256    7.1323 O.3       1 <0>        -0.3169 
      10 C6         0.0596    1.4588    6.4320 C.3       1 <0>         0.0729 
      11 C7         1.5355    1.8331    6.5335 C.3       1 <0>        -0.1704 
      12 C8        -0.3531    1.4315    4.9797 C.2       1 <0>         0.5166 
      13 O4        -1.2165    2.2060    4.5703 O.2       1 <0>        -0.4890 
      14 N2         0.2174    0.5698    4.1427 N.am      1 <0>        -0.6633 
      15 C9        -0.1681    0.5432    2.7815 C.ar      1 <0>         0.1513 
      16 C10       -1.1528    1.4335    2.3373 C.ar      1 <0>        -0.1318 
      17 C11       -1.5732    1.4517    1.0021 C.ar      1 <0>        -0.0823 
      18 C12       -0.9573    0.5355    0.1411 C.ar      1 <0>         0.0206 
      19 C13        0.0307   -0.3467    0.5942 C.ar      1 <0>         0.0545 
      20 C14        0.4589   -0.3768    1.9267 C.ar      1 <0>        -0.1051 
      21 O5         0.4249   -1.2031   -0.4316 O.3       1 <0>        -0.2879 
      22 C15       -0.0561   -0.4181   -1.5256 C.3       1 <0>         0.2651 
      23 O6        -1.2023    0.3714   -1.1968 O.3       1 <0>        -0.2965 
      24 C16       -0.4389   -1.3596   -2.7849 C.3       1 <0>        -0.1489 
      25 C17       -0.7691   -0.5092   -4.0255 C.3       1 <0>        -0.1151 
      26 C18        0.4071    0.4224   -4.3720 C.3       1 <0>        -0.1246 
      27 C19        0.7570    1.3349   -3.1817 C.3       1 <0>        -0.1168 
      28 C20        1.1005    0.5181   -1.9222 C.3       1 <0>        -0.1129 
      29 H1        -0.4596    6.6168    6.6754 H         1 <0>         0.0628 
      30 H2         0.7439    7.9238    6.7103 H         1 <0>         0.0629 
      31 H3         1.2731    6.2276    6.7403 H         1 <0>         0.0642 
      32 H4        -0.3250    7.6218    8.9264 H         1 <0>         0.0966 
      33 H5         1.4126    7.2553    8.9915 H         1 <0>         0.0967 
      34 H6        -1.6574    5.4341    8.1506 H         1 <0>         0.4129 
      35 H7        -1.0470    3.5282   10.2909 H         1 <0>         0.1177 
      36 H8        -2.3648    3.3972    9.1061 H         1 <0>         0.1174 
      37 H9        -0.0968    0.4757    6.8711 H         1 <0>         0.1170 
      38 H10        1.6886    2.8214    6.1052 H         1 <0>         0.0784 
      39 H11        1.8362    1.8396    7.5790 H         1 <0>         0.0805 
      40 H12        2.1321    1.1046    5.9883 H         1 <0>         0.0845 
      41 H13        0.9264   -0.0661    4.4788 H         1 <0>         0.4164 
      42 H14       -1.5996    2.1244    3.0369 H         1 <0>         0.1427 
      43 H15       -2.3324    2.1382    0.6577 H         1 <0>         0.1415 
      44 H16        1.2240   -1.0652    2.2538 H         1 <0>         0.1512 
      45 H17        0.3831   -2.0352   -3.0117 H         1 <0>         0.0736 
      46 H18       -1.2994   -1.9689   -2.5167 H         1 <0>         0.0900 
      47 H19       -1.6554    0.0905   -3.8295 H         1 <0>         0.0715 
      48 H20       -0.9840   -1.1573   -4.8725 H         1 <0>         0.0728 
      49 H21        1.2781   -0.1757   -4.6319 H         1 <0>         0.0706 
      50 H22        0.1516    1.0323   -5.2359 H         1 <0>         0.0661 
      51 H23       -0.0910    1.9811   -2.9652 H         1 <0>         0.0735 
      52 H24        1.6010    1.9690   -3.4452 H         1 <0>         0.0762 
      53 H25        1.9892   -0.0809   -2.1093 H         1 <0>         0.0928 
      54 H26        1.3229    1.1953   -1.1002 H         1 <0>         0.0829 
@<TRIPOS>BOND
       1        1        2 1        
       2        1       29 1        
       3        1       30 1        
       4        1       31 1        
       5        2        3 1        
       6        2       32 1        
       7        2       33 1        
       8        3        4 2        
       9        3        5 am       
      10        5        6 1        
      11        5       34 1        
      12        6        7 1        
      13        6       35 1        
      14        6       36 1        
      15        7        8 2        
      16        7        9 1        
      17        9       10 1        
      18       10       11 1        
      19       10       12 1        
      20       10       37 1        
      21       11       38 1        
      22       11       39 1        
      23       11       40 1        
      24       12       13 2        
      25       12       14 am       
      26       14       15 1        
      27       14       41 1        
      28       15       20 ar       
      29       15       16 ar       
      30       16       17 ar       
      31       16       42 1        
      32       17       18 ar       
      33       17       43 1        
      34       18       23 1        
      35       18       19 ar       
      36       19       20 ar       
      37       19       21 1        
      38       20       44 1        
      39       21       22 1        
      40       22       28 1        
      41       22       23 1        
      42       22       24 1        
      43       24       25 1        
      44       24       45 1        
      45       24       46 1        
      46       25       26 1        
      47       25       47 1        
      48       25       48 1        
      49       26       27 1        
      50       26       49 1        
      51       26       50 1        
      52       27       28 1        
      53       27       51 1        
      54       27       52 1        
      55       28       53 1        
      56       28       54 1        

