#        1GCZ_R01_S0001_C0000_L00012_S0001_C0048_G0010_E0001.mol2
#        Tue Jun  6 09:59:17 2017
#        Descriptor:     23    31    34     8     8    11
#        Energy - RMSD - RMSD MassCentre:     -78.7542    999.9999    999.9999
#        Receptor:       1  Surface Point:     1  Conformer:     0
#        Ligand:        12  Surface Point:     1  Conformer:    48
#        BUDE Formal Charge: 0
#        ATOM Count: 54
#        Heavy ATOM Count: 28
@<TRIPOS>MOLECULE
ZINC61282011_1GCZ_R01_S0001_C0000_L00012_S0001_C0048_G0010_E0001
 54 56 0 0 0
SMALL
USER_CHARGES
@<TRIPOS>ATOM
       1 C1         2.8206    0.2795    9.7583 C.3       1 <0>        -0.1394 
       2 C2         1.6319   -0.6493    9.9883 C.3       1 <0>        -0.1416 
       3 C3         1.3462   -1.4226    8.7231 C.2       1 <0>         0.5168 
       4 O1         1.4131   -2.6507    8.7236 O.2       1 <0>        -0.5327 
       5 N1         1.0220   -0.7751    7.6075 N.am      1 <0>        -0.7288 
       6 C4         0.7440   -1.5278    6.3758 C.3       1 <0>         0.1281 
       7 C5        -0.6324   -2.1428    6.4628 C.2       1 <0>         0.4647 
       8 O2        -0.7559   -3.3310    6.4918 O.2       1 <0>        -0.5000 
       9 O3        -1.7240   -1.3498    6.5078 O.3       1 <0>        -0.3169 
      10 C6        -1.5264    0.0660    6.4706 C.3       1 <0>         0.0729 
      11 C7        -2.8726    0.7719    6.6053 C.3       1 <0>        -0.1704 
      12 C8        -0.8873    0.4496    5.1573 C.2       1 <0>         0.5166 
      13 O4         0.1943    1.0353    5.1468 O.2       1 <0>        -0.4890 
      14 N2        -1.4941    0.1540    4.0114 N.am      1 <0>        -0.6633 
      15 C9        -0.8963    0.5127    2.7801 C.ar      1 <0>         0.1513 
      16 C10        0.3968    1.0489    2.7839 C.ar      1 <0>        -0.1318 
      17 C11        1.0373    1.4213    1.5960 C.ar      1 <0>        -0.0823 
      18 C12        0.3166    1.2284    0.4113 C.ar      1 <0>         0.0206 
      19 C13       -0.9739    0.6861    0.4179 C.ar      1 <0>         0.0545 
      20 C14       -1.6264    0.3114    1.5984 C.ar      1 <0>        -0.1051 
      21 O5        -1.5013    0.6711   -0.8715 O.3       1 <0>        -0.2879 
      22 C15       -0.2650    0.7877   -1.5804 C.3       1 <0>         0.2651 
      23 O6         0.7349    1.5148   -0.8615 O.3       1 <0>        -0.2965 
      24 C16       -0.4588    1.5194   -2.9537 C.3       1 <0>        -0.1489 
      25 C17       -0.8939    0.5301   -4.0507 C.3       1 <0>        -0.1151 
      26 C18        0.2357   -0.4712   -4.3556 C.3       1 <0>        -0.1246 
      27 C19        1.0777   -0.7527   -3.0973 C.3       1 <0>        -0.1168 
      28 C20        0.2321   -0.6509   -1.8142 C.3       1 <0>        -0.1129 
      29 H1         2.5824    0.9819    8.9623 H         1 <0>         0.0628 
      30 H2         3.0347    0.8269   10.6738 H         1 <0>         0.0629 
      31 H3         3.6906   -0.3094    9.4750 H         1 <0>         0.0642 
      32 H4         0.7577   -0.0605   10.2579 H         1 <0>         0.0966 
      33 H5         1.8641   -1.3443   10.7926 H         1 <0>         0.0967 
      34 H6         0.9668    0.2334    7.6060 H         1 <0>         0.4129 
      35 H7         0.7866   -0.8554    5.5217 H         1 <0>         0.1177 
      36 H8         1.4853   -2.3149    6.2558 H         1 <0>         0.1174 
      37 H9        -0.8763    0.3640    7.2903 H         1 <0>         0.1170 
      38 H10       -3.5262    0.4637    5.7920 H         1 <0>         0.0784 
      39 H11       -3.3271    0.5060    7.5573 H         1 <0>         0.0805 
      40 H12       -2.7225    1.8487    6.5626 H         1 <0>         0.0845 
      41 H13       -2.3821   -0.3269    4.0201 H         1 <0>         0.4164 
      42 H14        0.9160    1.1783    3.7221 H         1 <0>         0.1427 
      43 H15        2.0350    1.8347    1.5973 H         1 <0>         0.1415 
      44 H16       -2.6221   -0.1066    1.5798 H         1 <0>         0.1512 
      45 H17       -1.2018    2.3079   -2.8555 H         1 <0>         0.0736 
      46 H18        0.4820    1.9887   -3.2336 H         1 <0>         0.0900 
      47 H19       -1.1409    1.0785   -4.9573 H         1 <0>         0.0715 
      48 H20       -1.7839   -0.0085   -3.7322 H         1 <0>         0.0728 
      49 H21       -0.1946   -1.4041   -4.7138 H         1 <0>         0.0706 
      50 H22        0.8759   -0.0758   -5.1415 H         1 <0>         0.0661 
      51 H23        1.8920   -0.0332   -3.0435 H         1 <0>         0.0735 
      52 H24        1.5146   -1.7467   -3.1667 H         1 <0>         0.0762 
      53 H25       -0.6285   -1.3117   -1.8934 H         1 <0>         0.0928 
      54 H26        0.8249   -0.9773   -0.9623 H         1 <0>         0.0829 
@<TRIPOS>BOND
       1        1        2 1        
       2        1       29 1        
       3        1       30 1        
       4        1       31 1        
       5        2        3 1        
       6        2       32 1        
       7        2       33 1        
       8        3        4 2        
       9        3        5 am       
      10        5        6 1        
      11        5       34 1        
      12        6        7 1        
      13        6       35 1        
      14        6       36 1        
      15        7        8 2        
      16        7        9 1        
      17        9       10 1        
      18       10       11 1        
      19       10       12 1        
      20       10       37 1        
      21       11       38 1        
      22       11       39 1        
      23       11       40 1        
      24       12       13 2        
      25       12       14 am       
      26       14       15 1        
      27       14       41 1        
      28       15       20 ar       
      29       15       16 ar       
      30       16       17 ar       
      31       16       42 1        
      32       17       18 ar       
      33       17       43 1        
      34       18       23 1        
      35       18       19 ar       
      36       19       20 ar       
      37       19       21 1        
      38       20       44 1        
      39       21       22 1        
      40       22       28 1        
      41       22       23 1        
      42       22       24 1        
      43       24       25 1        
      44       24       45 1        
      45       24       46 1        
      46       25       26 1        
      47       25       47 1        
      48       25       48 1        
      49       26       27 1        
      50       26       49 1        
      51       26       50 1        
      52       27       28 1        
      53       27       51 1        
      54       27       52 1        
      55       28       53 1        
      56       28       54 1        

