#        1GCZ_R01_S0001_C0000_L00012_S0001_C0048_G0010_E0001.mol2
#        Tue Jun  6 14:14:32 2017
#        Descriptor:      7    25    32     8    10    12
#        Energy - RMSD - RMSD MassCentre:     -75.2438    999.9999    999.9999
#        Receptor:       1  Surface Point:     1  Conformer:     0
#        Ligand:        12  Surface Point:     1  Conformer:    48
#        BUDE Formal Charge: 0
#        ATOM Count: 54
#        Heavy ATOM Count: 28
@<TRIPOS>MOLECULE
ZINC61282011_1GCZ_R01_S0001_C0000_L00012_S0001_C0048_G0010_E0001
 54 56 0 0 0
SMALL
USER_CHARGES
@<TRIPOS>ATOM
       1 C1        -2.9945    5.8205    9.4905 C.3       1 <0>        -0.1394 
       2 C2        -1.5138    5.9401    9.8399 C.3       1 <0>        -0.1416 
       3 C3        -0.6935    5.8985    8.5728 C.2       1 <0>         0.5168 
       4 O1         0.0180    6.8544    8.2681 O.2       1 <0>        -0.5327 
       5 N1        -0.7405    4.8274    7.7857 N.am      1 <0>        -0.7288 
       6 C4         0.0580    4.7869    6.5522 C.3       1 <0>         0.1281 
       7 C5         1.5028    4.5156    6.8977 C.2       1 <0>         0.4647 
       8 O2         2.3349    5.3464    6.6851 O.2       1 <0>        -0.5000 
       9 O3         1.8545    3.3336    7.4469 O.3       1 <0>        -0.3169 
      10 C6         0.8241    2.3706    7.6827 C.3       1 <0>         0.0729 
      11 C7         1.4197    1.1453    8.3704 C.3       1 <0>        -0.1704 
      12 C8         0.2103    1.9588    6.3659 C.2       1 <0>         0.5166 
      13 O4        -0.9940    2.1166    6.1718 O.2       1 <0>        -0.4890 
      14 N2         0.9724    1.4254    5.4154 N.am      1 <0>        -0.6633 
      15 C9         0.3987    1.0393    4.1809 C.ar      1 <0>         0.1513 
      16 C10       -0.9407    1.3566    3.9260 C.ar      1 <0>        -0.1318 
      17 C11       -1.5601    0.9997    2.7222 C.ar      1 <0>        -0.0823 
      18 C12       -0.7698    0.3122    1.7934 C.ar      1 <0>         0.0206 
      19 C13        0.5705    0.0047    2.0557 C.ar      1 <0>         0.0545 
      20 C14        1.2014    0.3540    3.2557 C.ar      1 <0>        -0.1051 
      21 O5         1.1096   -0.7468    1.0139 O.3       1 <0>        -0.2879 
      22 C15        0.1414   -0.4073    0.0181 C.3       1 <0>         0.2651 
      23 O6        -1.1550   -0.1344    0.5567 O.3       1 <0>        -0.2965 
      24 C16       -0.0354   -1.5630   -1.0269 C.3       1 <0>        -0.1489 
      25 C17        1.0198   -1.4645   -2.1441 C.3       1 <0>        -0.1151 
      26 C18        0.7921   -0.2005   -2.9938 C.3       1 <0>        -0.1246 
      27 C19        0.1955    0.9359   -2.1428 C.3       1 <0>        -0.1168 
      28 C20        0.6708    0.8591   -0.6800 C.3       1 <0>        -0.1129 
      29 H1        -3.1720    4.8726    8.9868 H         1 <0>         0.0628 
      30 H2        -3.5863    5.8637   10.4023 H         1 <0>         0.0629 
      31 H3        -3.2787    6.6399    8.8335 H         1 <0>         0.0642 
      32 H4        -1.2251    5.1133   10.4854 H         1 <0>         0.0966 
      33 H5        -1.3370    6.8821   10.3549 H         1 <0>         0.0967 
      34 H6        -1.3244    4.0419    8.0349 H         1 <0>         0.4129 
      35 H7        -0.3139    3.9960    5.9044 H         1 <0>         0.1177 
      36 H8        -0.0180    5.7429    6.0385 H         1 <0>         0.1174 
      37 H9         0.0572    2.8072    8.3188 H         1 <0>         0.1170 
      38 H10        2.1951    0.7168    7.7389 H         1 <0>         0.0784 
      39 H11        1.8501    1.4395    9.3252 H         1 <0>         0.0805 
      40 H12        0.6374    0.4075    8.5365 H         1 <0>         0.0845 
      41 H13        1.9612    1.2959    5.5748 H         1 <0>         0.4164 
      42 H14       -1.5120    1.8900    4.6713 H         1 <0>         0.1427 
      43 H15       -2.5932    1.2442    2.5238 H         1 <0>         0.1415 
      44 H16        2.2373    0.1078    3.4362 H         1 <0>         0.1512 
      45 H17        0.0431   -2.5290   -0.5326 H         1 <0>         0.0736 
      46 H18       -1.0329   -1.4946   -1.4559 H         1 <0>         0.0900 
      47 H19        0.9551   -2.3424   -2.7834 H         1 <0>         0.0715 
      48 H20        2.0173   -1.4389   -1.7105 H         1 <0>         0.0728 
      49 H21        1.7400    0.1281   -3.4149 H         1 <0>         0.0706 
      50 H22        0.1213   -0.4280   -3.8197 H         1 <0>         0.0661 
      51 H23       -0.8900    0.8689   -2.1671 H         1 <0>         0.0735 
      52 H24        0.4802    1.8964   -2.5676 H         1 <0>         0.0762 
      53 H25        1.7583    0.8473   -0.6519 H         1 <0>         0.0928 
      54 H26        0.3337    1.7427   -0.1422 H         1 <0>         0.0829 
@<TRIPOS>BOND
       1        1        2 1        
       2        1       29 1        
       3        1       30 1        
       4        1       31 1        
       5        2        3 1        
       6        2       32 1        
       7        2       33 1        
       8        3        4 2        
       9        3        5 am       
      10        5        6 1        
      11        5       34 1        
      12        6        7 1        
      13        6       35 1        
      14        6       36 1        
      15        7        8 2        
      16        7        9 1        
      17        9       10 1        
      18       10       11 1        
      19       10       12 1        
      20       10       37 1        
      21       11       38 1        
      22       11       39 1        
      23       11       40 1        
      24       12       13 2        
      25       12       14 am       
      26       14       15 1        
      27       14       41 1        
      28       15       20 ar       
      29       15       16 ar       
      30       16       17 ar       
      31       16       42 1        
      32       17       18 ar       
      33       17       43 1        
      34       18       23 1        
      35       18       19 ar       
      36       19       20 ar       
      37       19       21 1        
      38       20       44 1        
      39       21       22 1        
      40       22       28 1        
      41       22       23 1        
      42       22       24 1        
      43       24       25 1        
      44       24       45 1        
      45       24       46 1        
      46       25       26 1        
      47       25       47 1        
      48       25       48 1        
      49       26       27 1        
      50       26       49 1        
      51       26       50 1        
      52       27       28 1        
      53       27       51 1        
      54       27       52 1        
      55       28       53 1        
      56       28       54 1        

