#        1GCZ_R01_S0001_C0000_L00012_S0001_C0049_G0010_E0001.mol2
#        Tue Jun  6 09:59:18 2017
#        Descriptor:     23    31     9     8     9    11
#        Energy - RMSD - RMSD MassCentre:     -77.5428    999.9999    999.9999
#        Receptor:       1  Surface Point:     1  Conformer:     0
#        Ligand:        12  Surface Point:     1  Conformer:    49
#        BUDE Formal Charge: 0
#        ATOM Count: 54
#        Heavy ATOM Count: 28
@<TRIPOS>MOLECULE
ZINC61282011_1GCZ_R01_S0001_C0000_L00012_S0001_C0049_G0010_E0001
 54 56 0 0 0
SMALL
USER_CHARGES
@<TRIPOS>ATOM
       1 C1        -1.2441    3.5783    9.7568 C.3       1 <0>        -0.1394 
       2 C2         0.0353    2.7790    9.9868 C.3       1 <0>        -0.1416 
       3 C3         0.8597    2.7751    8.7216 C.2       1 <0>         0.5168 
       4 O1         1.9908    3.2579    8.7221 O.2       1 <0>        -0.5327 
       5 N1         0.3620    2.2489    7.6060 N.am      1 <0>        -0.7288 
       6 C4         1.1644    2.2451    6.3744 C.3       1 <0>         0.1281 
       7 C5         2.2131    1.1620    6.4614 C.2       1 <0>         0.4647 
       8 O2         3.3719    1.4524    6.4904 O.2       1 <0>        -0.5000 
       9 O3         1.8413   -0.1349    6.5063 O.3       1 <0>        -0.3169 
      10 C6         0.4433   -0.4335    6.4691 C.3       1 <0>         0.0729 
      11 C7         0.2404   -1.9400    6.6039 C.3       1 <0>        -0.1704 
      12 C8        -0.1358    0.0359    5.1559 C.2       1 <0>         0.5166 
      13 O4        -1.0561    0.8519    5.1453 O.2       1 <0>        -0.4890 
      14 N2         0.3495   -0.4332    4.0099 N.am      1 <0>        -0.6633 
      15 C9        -0.1920    0.0058    2.7786 C.ar      1 <0>         0.1513 
      16 C10       -1.1381    1.0376    2.7825 C.ar      1 <0>        -0.1318 
      17 C11       -1.7071    1.5120    1.5945 C.ar      1 <0>        -0.0823 
      18 C12       -1.2794    0.9008    0.4099 C.ar      1 <0>         0.0206 
      19 C13       -0.3284   -0.1264    0.4164 C.ar      1 <0>         0.0545 
      20 C14        0.2469   -0.6114    1.5970 C.ar      1 <0>        -0.1051 
      21 O5        -0.1339   -0.6168   -0.8730 O.3       1 <0>        -0.2879 
      22 C15       -0.6663    0.5050   -1.5818 C.3       1 <0>         0.2651 
      23 O6        -1.6915    1.1959   -0.8630 O.3       1 <0>        -0.2965 
      24 C16       -1.2039   -0.0352   -2.9425 C.3       1 <0>        -0.1489 
      25 C17       -1.0627    1.0263   -4.0492 C.3       1 <0>        -0.1151 
      26 C18        0.4224    1.2941   -4.3561 C.3       1 <0>        -0.1246 
      27 C19        1.2888    1.1026   -3.0974 C.3       1 <0>        -0.1168 
      28 C20        0.5155    1.4642   -1.8157 C.3       1 <0>        -0.1129 
      29 H1        -1.8227    3.1143    8.9608 H         1 <0>         0.0628 
      30 H2        -1.8317    3.5923   10.6723 H         1 <0>         0.0629 
      31 H3        -0.9883    4.5973    9.4735 H         1 <0>         0.0642 
      32 H4        -0.2190    1.7561   10.2564 H         1 <0>         0.0966 
      33 H5         0.6089    3.2349   10.7911 H         1 <0>         0.0967 
      34 H6        -0.5667    1.8521    7.6045 H         1 <0>         0.4129 
      35 H7         0.5180    2.0552    5.5202 H         1 <0>         0.1177 
      36 H8         1.6506    3.2109    6.2543 H         1 <0>         0.1174 
      37 H9        -0.0591    0.0755    7.2889 H         1 <0>         0.1170 
      38 H10        0.7536   -2.4487    5.7905 H         1 <0>         0.0784 
      39 H11        0.6457   -2.2761    7.5558 H         1 <0>         0.0805 
      40 H12       -0.8228   -2.1672    6.5611 H         1 <0>         0.0845 
      41 H13        1.1051   -1.1032    4.0186 H         1 <0>         0.4164 
      42 H14       -1.4373    1.4812    3.7206 H         1 <0>         0.1427 
      43 H15       -2.4368    2.3082    1.5958 H         1 <0>         0.1415 
      44 H16        0.9802   -1.4041    1.5783 H         1 <0>         0.1512 
      45 H17       -0.6649   -0.9361   -3.2277 H         1 <0>         0.0736 
      46 H18       -2.2513   -0.3043   -2.8222 H         1 <0>         0.0900 
      47 H19       -1.5346    1.9521   -3.7270 H         1 <0>         0.0715 
      48 H20       -1.5678    0.6897   -4.9522 H         1 <0>         0.0728 
      49 H21        0.7611    0.6092   -5.1307 H         1 <0>         0.0706 
      50 H22        0.5437    2.3082   -4.7312 H         1 <0>         0.0661 
      51 H23        2.1704    1.7360   -3.1704 H         1 <0>         0.0735 
      52 H24        1.6242    0.0691   -3.0402 H         1 <0>         0.0762 
      53 H25        1.1856    1.4113   -0.9604 H         1 <0>         0.0928 
      54 H26        0.1496    2.4861   -1.8889 H         1 <0>         0.0829 
@<TRIPOS>BOND
       1        1        2 1        
       2        1       29 1        
       3        1       30 1        
       4        1       31 1        
       5        2        3 1        
       6        2       32 1        
       7        2       33 1        
       8        3        4 2        
       9        3        5 am       
      10        5        6 1        
      11        5       34 1        
      12        6        7 1        
      13        6       35 1        
      14        6       36 1        
      15        7        8 2        
      16        7        9 1        
      17        9       10 1        
      18       10       11 1        
      19       10       12 1        
      20       10       37 1        
      21       11       38 1        
      22       11       39 1        
      23       11       40 1        
      24       12       13 2        
      25       12       14 am       
      26       14       15 1        
      27       14       41 1        
      28       15       20 ar       
      29       15       16 ar       
      30       16       17 ar       
      31       16       42 1        
      32       17       18 ar       
      33       17       43 1        
      34       18       23 1        
      35       18       19 ar       
      36       19       20 ar       
      37       19       21 1        
      38       20       44 1        
      39       21       22 1        
      40       22       28 1        
      41       22       23 1        
      42       22       24 1        
      43       24       25 1        
      44       24       45 1        
      45       24       46 1        
      46       25       26 1        
      47       25       47 1        
      48       25       48 1        
      49       26       27 1        
      50       26       49 1        
      51       26       50 1        
      52       27       28 1        
      53       27       51 1        
      54       27       52 1        
      55       28       53 1        
      56       28       54 1        

