#        1GCZ_R01_S0001_C0000_L00012_S0001_C0049_G0010_E0001.mol2
#        Tue Jun  6 14:14:34 2017
#        Descriptor:     32    34    14    14     9    13
#        Energy - RMSD - RMSD MassCentre:     -60.7390    999.9999    999.9999
#        Receptor:       1  Surface Point:     1  Conformer:     0
#        Ligand:        12  Surface Point:     1  Conformer:    49
#        BUDE Formal Charge: 0
#        ATOM Count: 54
#        Heavy ATOM Count: 28
@<TRIPOS>MOLECULE
ZINC61282011_1GCZ_R01_S0001_C0000_L00012_S0001_C0049_G0010_E0001
 54 56 0 0 0
SMALL
USER_CHARGES
@<TRIPOS>ATOM
       1 C1        12.2683    3.9882    7.3725 C.3       1 <0>        -0.1394 
       2 C2        12.8016    2.9344    6.4063 C.3       1 <0>        -0.1416 
       3 C3        11.7970    2.7117    5.3010 C.2       1 <0>         0.5168 
       4 O1        12.1082    2.9339    4.1320 O.2       1 <0>        -0.5327 
       5 N1        10.5749    2.2750    5.5920 N.am      1 <0>        -0.7288 
       6 C4         9.5970    2.0583    4.5162 C.3       1 <0>         0.1281 
       7 C5         9.9235    0.7742    3.7916 C.2       1 <0>         0.4647 
       8 O2        10.2637    0.8034    2.6465 O.2       1 <0>        -0.5000 
       9 O3         9.8310   -0.4073    4.4379 O.3       1 <0>        -0.3169 
      10 C6         9.4199   -0.3922    5.8074 C.3       1 <0>         0.0729 
      11 C7         9.4520   -1.8125    6.3647 C.3       1 <0>        -0.1704 
      12 C8         8.0154    0.1538    5.9044 C.2       1 <0>         0.5166 
      13 O4         7.7883    1.1515    6.5870 O.2       1 <0>        -0.4890 
      14 N2         7.0232   -0.4443    5.2513 N.am      1 <0>        -0.6633 
      15 C9         5.7066    0.0662    5.3410 C.ar      1 <0>         0.1513 
      16 C10        5.4931    1.2804    6.0042 C.ar      1 <0>        -0.1318 
      17 C11        4.2122    1.8328    6.1233 C.ar      1 <0>        -0.0823 
      18 C12        3.1634    1.1076    5.5454 C.ar      1 <0>         0.0206 
      19 C13        3.3883   -0.1029    4.8793 C.ar      1 <0>         0.0545 
      20 C14        4.6635   -0.6672    4.7546 C.ar      1 <0>        -0.1051 
      21 O5         2.1810   -0.6621    4.4665 O.3       1 <0>        -0.2879 
      22 C15        1.3910    0.5277    4.5345 C.3       1 <0>         0.2651 
      23 O6         1.8363    1.4482    5.5343 O.3       1 <0>        -0.2965 
      24 C16       -0.0784    0.0788    4.8020 C.3       1 <0>        -0.1489 
      25 C17       -1.0774    1.0500    4.1460 C.3       1 <0>        -0.1151 
      26 C18       -0.9764    0.9754    2.6111 C.3       1 <0>        -0.1246 
      27 C19        0.4591    0.6356    2.1688 C.3       1 <0>        -0.1168 
      28 C20        1.5036    1.1963    3.1519 C.3       1 <0>        -0.1129 
      29 H1        11.3351    3.6393    7.8097 H         1 <0>         0.0628 
      30 H2        12.9978    4.1583    8.1615 H         1 <0>         0.0629 
      31 H3        12.0923    4.9171    6.8339 H         1 <0>         0.0642 
      32 H4        12.9647    2.0009    6.9408 H         1 <0>         0.0966 
      33 H5        13.7413    3.2767    5.9778 H         1 <0>         0.0967 
      34 H6        10.3183    2.0922    6.5516 H         1 <0>         0.4129 
      35 H7         8.5981    1.9899    4.9415 H         1 <0>         0.1177 
      36 H8         9.6373    2.8896    3.8155 H         1 <0>         0.1174 
      37 H9        10.0942    0.2389    6.3824 H         1 <0>         0.1170 
      38 H10        8.7868   -2.4455    5.7812 H         1 <0>         0.0784 
      39 H11       10.4665   -2.2011    6.3072 H         1 <0>         0.0805 
      40 H12        9.1254   -1.8016    7.4025 H         1 <0>         0.0845 
      41 H13        7.2096   -1.2635    4.6908 H         1 <0>         0.4164 
      42 H14        6.3328    1.8066    6.4336 H         1 <0>         0.1427 
      43 H15        4.0459    2.7697    6.6343 H         1 <0>         0.1415 
      44 H16        4.8140   -1.6019    4.2349 H         1 <0>         0.1512 
      45 H17       -0.2390   -0.9266    4.4188 H         1 <0>         0.0736 
      46 H18       -0.2447    0.0502    5.8768 H         1 <0>         0.0900 
      47 H19       -0.8628    2.0660    4.4702 H         1 <0>         0.0715 
      48 H20       -2.0908    0.8060    4.4580 H         1 <0>         0.0728 
      49 H21       -1.6552    0.2102    2.2405 H         1 <0>         0.0706 
      50 H22       -1.2763    1.9264    2.1759 H         1 <0>         0.0661 
      51 H23        0.6385    1.0573    1.1820 H         1 <0>         0.0735 
      52 H24        0.5715   -0.4441    2.0958 H         1 <0>         0.0762 
      53 H25        2.5026    1.0227    2.7578 H         1 <0>         0.0928 
      54 H26        1.3674    2.2710    3.2518 H         1 <0>         0.0829 
@<TRIPOS>BOND
       1        1        2 1        
       2        1       29 1        
       3        1       30 1        
       4        1       31 1        
       5        2        3 1        
       6        2       32 1        
       7        2       33 1        
       8        3        4 2        
       9        3        5 am       
      10        5        6 1        
      11        5       34 1        
      12        6        7 1        
      13        6       35 1        
      14        6       36 1        
      15        7        8 2        
      16        7        9 1        
      17        9       10 1        
      18       10       11 1        
      19       10       12 1        
      20       10       37 1        
      21       11       38 1        
      22       11       39 1        
      23       11       40 1        
      24       12       13 2        
      25       12       14 am       
      26       14       15 1        
      27       14       41 1        
      28       15       20 ar       
      29       15       16 ar       
      30       16       17 ar       
      31       16       42 1        
      32       17       18 ar       
      33       17       43 1        
      34       18       23 1        
      35       18       19 ar       
      36       19       20 ar       
      37       19       21 1        
      38       20       44 1        
      39       21       22 1        
      40       22       28 1        
      41       22       23 1        
      42       22       24 1        
      43       24       25 1        
      44       24       45 1        
      45       24       46 1        
      46       25       26 1        
      47       25       47 1        
      48       25       48 1        
      49       26       27 1        
      50       26       49 1        
      51       26       50 1        
      52       27       28 1        
      53       27       51 1        
      54       27       52 1        
      55       28       53 1        
      56       28       54 1        

