#        1GCZ_R01_S0001_C0000_L00012_S0001_C0050_G0010_E0001.mol2
#        Tue Jun  6 09:59:19 2017
#        Descriptor:      7    23    18     8     7    12
#        Energy - RMSD - RMSD MassCentre:     -72.5811    999.9999    999.9999
#        Receptor:       1  Surface Point:     1  Conformer:     0
#        Ligand:        12  Surface Point:     1  Conformer:    50
#        BUDE Formal Charge: 0
#        ATOM Count: 54
#        Heavy ATOM Count: 28
@<TRIPOS>MOLECULE
ZINC61282011_1GCZ_R01_S0001_C0000_L00012_S0001_C0050_G0010_E0001
 54 56 0 0 0
SMALL
USER_CHARGES
@<TRIPOS>ATOM
       1 C1         1.9340   -5.3689   10.4153 C.3       1 <0>        -0.1394 
       2 C2         1.5486   -4.6182    9.1439 C.3       1 <0>        -0.1416 
       3 C3         1.3407   -3.1577    9.4662 C.2       1 <0>         0.5168 
       4 O1         1.4892   -2.7541   10.6186 O.2       1 <0>        -0.5327 
       5 N1         0.9967   -2.3070    8.5034 N.am      1 <0>        -0.7288 
       6 C4         0.8193   -2.7893    7.1262 C.3       1 <0>         0.1281 
       7 C5        -0.5028   -3.5101    7.0127 C.2       1 <0>         0.4647 
       8 O2        -0.5272   -4.6814    6.7776 O.2       1 <0>        -0.5000 
       9 O3        -1.6577   -2.8307    7.1768 O.3       1 <0>        -0.3169 
      10 C6        -1.5784   -1.4307    7.4566 C.3       1 <0>         0.0729 
      11 C7        -2.9824   -0.8749    7.6774 C.3       1 <0>        -0.1704 
      12 C8        -0.9348   -0.7207    6.2895 C.2       1 <0>         0.5166 
      13 O4         0.0937   -0.0675    6.4573 O.2       1 <0>        -0.4890 
      14 N2        -1.4805   -0.8019    5.0794 N.am      1 <0>        -0.6633 
      15 C9        -0.8786   -0.1374    3.9848 C.ar      1 <0>         0.1513 
      16 C10        0.3645    0.4804    4.1659 C.ar      1 <0>        -0.1318 
      17 C11        1.0065    1.1520    3.1185 C.ar      1 <0>        -0.0823 
      18 C12        0.3400    1.1707    1.8875 C.ar      1 <0>         0.0206 
      19 C13       -0.9002    0.5447    1.7153 C.ar      1 <0>         0.0545 
      20 C14       -1.5538   -0.1284    2.7544 C.ar      1 <0>        -0.1051 
      21 O5        -1.3859    0.7739    0.4299 O.3       1 <0>        -0.2879 
      22 C15       -0.1433    1.1362   -0.1776 C.3       1 <0>         0.2651 
      23 O6         0.7705    1.7604    0.7282 O.3       1 <0>        -0.2965 
      24 C16       -0.3567    2.1351   -1.3673 C.3       1 <0>        -0.1489 
      25 C17       -0.6747    1.3814   -2.6719 C.3       1 <0>        -0.1151 
      26 C18        0.5433    0.5594   -3.1329 C.3       1 <0>        -0.1246 
      27 C19        1.3681    0.0724   -1.9271 C.3       1 <0>        -0.1168 
      28 C20        0.4793   -0.1743   -0.6939 C.3       1 <0>        -0.1129 
      29 H1         1.1320   -5.2799   11.1453 H         1 <0>         0.0628 
      30 H2         2.0967   -6.4187   10.1806 H         1 <0>         0.0629 
      31 H3         2.8471   -4.9423   10.8250 H         1 <0>         0.0642 
      32 H4         0.6278   -5.0348    8.7410 H         1 <0>         0.0966 
      33 H5         2.3444   -4.7168    8.4084 H         1 <0>         0.0967 
      34 H6         0.8573   -1.3300    8.7179 H         1 <0>         0.4129 
      35 H7         0.8309   -1.9443    6.4411 H         1 <0>         0.1177 
      36 H8         1.6272   -3.4728    6.8736 H         1 <0>         0.1174 
      37 H9        -0.9801   -1.2722    8.3513 H         1 <0>         0.1170 
      38 H10       -3.5834   -1.0450    6.7866 H         1 <0>         0.0784 
      39 H11       -3.4410   -1.3769    8.5266 H         1 <0>         0.0805 
      40 H12       -2.9217    0.1931    7.8762 H         1 <0>         0.0845 
      41 H13       -2.3250   -1.3383    4.9416 H         1 <0>         0.4164 
      42 H14        0.8429    0.4391    5.1333 H         1 <0>         0.1427 
      43 H15        1.9656    1.6288    3.2566 H         1 <0>         0.1415 
      44 H16       -2.5100   -0.6057    2.5985 H         1 <0>         0.1512 
      45 H17       -1.1658    2.8246   -1.1358 H         1 <0>         0.0736 
      46 H18        0.5494    2.7239   -1.4940 H         1 <0>         0.0900 
      47 H19       -0.9398    2.0955   -3.4488 H         1 <0>         0.0715 
      48 H20       -1.5256    0.7206   -2.5202 H         1 <0>         0.0728 
      49 H21        0.2034   -0.3015   -3.7047 H         1 <0>         0.0706 
      50 H22        1.1712    1.1649   -3.7832 H         1 <0>         0.0661 
      51 H23        2.1174    0.8215   -1.6802 H         1 <0>         0.0735 
      52 H24        1.8886   -0.8464   -2.1896 H         1 <0>         0.0762 
      53 H25       -0.3203   -0.8643   -0.9550 H         1 <0>         0.0928 
      54 H26        1.0717   -0.6345    0.0941 H         1 <0>         0.0829 
@<TRIPOS>BOND
       1        1        2 1        
       2        1       29 1        
       3        1       30 1        
       4        1       31 1        
       5        2        3 1        
       6        2       32 1        
       7        2       33 1        
       8        3        4 2        
       9        3        5 am       
      10        5        6 1        
      11        5       34 1        
      12        6        7 1        
      13        6       35 1        
      14        6       36 1        
      15        7        8 2        
      16        7        9 1        
      17        9       10 1        
      18       10       11 1        
      19       10       12 1        
      20       10       37 1        
      21       11       38 1        
      22       11       39 1        
      23       11       40 1        
      24       12       13 2        
      25       12       14 am       
      26       14       15 1        
      27       14       41 1        
      28       15       20 ar       
      29       15       16 ar       
      30       16       17 ar       
      31       16       42 1        
      32       17       18 ar       
      33       17       43 1        
      34       18       23 1        
      35       18       19 ar       
      36       19       20 ar       
      37       19       21 1        
      38       20       44 1        
      39       21       22 1        
      40       22       28 1        
      41       22       23 1        
      42       22       24 1        
      43       24       25 1        
      44       24       45 1        
      45       24       46 1        
      46       25       26 1        
      47       25       47 1        
      48       25       48 1        
      49       26       27 1        
      50       26       49 1        
      51       26       50 1        
      52       27       28 1        
      53       27       51 1        
      54       27       52 1        
      55       28       53 1        
      56       28       54 1        

