#        1GCZ_R01_S0001_C0000_L00012_S0001_C0050_G0010_E0001.mol2
#        Tue Jun  6 14:14:35 2017
#        Descriptor:     26    30    16     8    10    13
#        Energy - RMSD - RMSD MassCentre:     -81.0321    999.9999    999.9999
#        Receptor:       1  Surface Point:     1  Conformer:     0
#        Ligand:        12  Surface Point:     1  Conformer:    50
#        BUDE Formal Charge: 0
#        ATOM Count: 54
#        Heavy ATOM Count: 28
@<TRIPOS>MOLECULE
ZINC61282011_1GCZ_R01_S0001_C0000_L00012_S0001_C0050_G0010_E0001
 54 56 0 0 0
SMALL
USER_CHARGES
@<TRIPOS>ATOM
       1 C1        -0.3454    7.7402   10.5601 C.3       1 <0>        -0.1394 
       2 C2        -0.2201    6.7022    9.4485 C.3       1 <0>        -0.1416 
       3 C3        -0.7751    5.3825    9.9285 C.2       1 <0>         0.5168 
       4 O1        -1.2323    5.2838   11.0662 O.2       1 <0>        -0.5327 
       5 N1        -0.7697    4.3260    9.1207 N.am      1 <0>        -0.7288 
       6 C4        -0.2236    4.4439    7.7611 C.3       1 <0>         0.1281 
       7 C5         1.2852    4.4495    7.8245 C.2       1 <0>         0.4647 
       8 O2         1.8940    5.4241    7.4968 O.2       1 <0>        -0.5000 
       9 O3         1.9464    3.3529    8.2515 O.3       1 <0>        -0.3169 
      10 C6         1.1752    2.2108    8.6331 C.3       1 <0>         0.0729 
      11 C7         2.1057    1.1171    9.1497 C.3       1 <0>        -0.1704 
      12 C8         0.4122    1.6969    7.4356 C.2       1 <0>         0.5166 
      13 O4        -0.8151    1.6245    7.4722 O.2       1 <0>        -0.4890 
      14 N2         1.0676    1.3225    6.3406 N.am      1 <0>        -0.6633 
      15 C9         0.3541    0.8409    5.2177 C.ar      1 <0>         0.1513 
      16 C10       -1.0445    0.9000    5.2257 C.ar      1 <0>        -0.1318 
      17 C11       -1.8019    0.4383    4.1424 C.ar      1 <0>        -0.0823 
      18 C12       -1.0866   -0.0822    3.0574 C.ar      1 <0>         0.0206 
      19 C13        0.3124   -0.1314    3.0569 C.ar      1 <0>         0.0545 
      20 C14        1.0816    0.3250    4.1339 C.ar      1 <0>        -0.1051 
      21 O5         0.7761   -0.7618    1.9043 O.3       1 <0>        -0.2879 
      22 C15       -0.4076   -0.6069    1.1175 C.3       1 <0>         0.2651 
      23 O6        -1.6076   -0.5874    1.8953 O.3       1 <0>        -0.2965 
      24 C16       -0.5602   -1.7698    0.0767 C.3       1 <0>        -0.1489 
      25 C17        0.2296   -1.4674   -1.2101 C.3       1 <0>        -0.1151 
      26 C18       -0.3836   -0.2651   -1.9518 C.3       1 <0>        -0.1246 
      27 C19       -1.0098    0.7333   -0.9605 C.3       1 <0>        -0.1168 
      28 C20       -0.2626    0.7405    0.3860 C.3       1 <0>        -0.1129 
      29 H1         0.2247    7.4126   11.4271 H         1 <0>         0.0628 
      30 H2         0.0424    8.6943   10.2098 H         1 <0>         0.0629 
      31 H3        -1.3922    7.8521   10.8348 H         1 <0>         0.0642 
      32 H4         0.8278    6.5792    9.1829 H         1 <0>         0.0966 
      33 H5        -0.7796    7.0345    8.5765 H         1 <0>         0.0967 
      34 H6        -1.1407    3.4428    9.4407 H         1 <0>         0.4129 
      35 H7        -0.5575    3.6001    7.1610 H         1 <0>         0.1177 
      36 H8        -0.5704    5.3708    7.3092 H         1 <0>         0.1174 
      37 H9         0.4739    2.4909    9.4162 H         1 <0>         0.1170 
      38 H10        2.8145    0.8466    8.3698 H         1 <0>         0.0784 
      39 H11        2.6456    1.4827   10.0205 H         1 <0>         0.0805 
      40 H12        1.5190    0.2435    9.4263 H         1 <0>         0.0845 
      41 H13        2.0753    1.3820    6.3106 H         1 <0>         0.4164 
      42 H14       -1.5545    1.3115    6.0842 H         1 <0>         0.1427 
      43 H15       -2.8809    0.4835    4.1470 H         1 <0>         0.1415 
      44 H16        2.1604    0.2786    4.1113 H         1 <0>         0.1512 
      45 H17       -0.2128   -2.7059    0.5086 H         1 <0>         0.0736 
      46 H18       -1.6156   -1.8894   -0.1590 H         1 <0>         0.0900 
      47 H19        0.2099   -2.3383   -1.8618 H         1 <0>         0.0715 
      48 H20        1.2685   -1.2554   -0.9661 H         1 <0>         0.0728 
      49 H21        0.3908    0.2394   -2.5259 H         1 <0>         0.0706 
      50 H22       -1.1435   -0.6113   -2.6492 H         1 <0>         0.0661 
      51 H23       -2.0491    0.4619   -0.7880 H         1 <0>         0.0735 
      52 H24       -0.9929    1.7325   -1.3910 H         1 <0>         0.0762 
      53 H25        0.7939    0.9349    0.2137 H         1 <0>         0.0928 
      54 H26       -0.6504    1.5414    1.0119 H         1 <0>         0.0829 
@<TRIPOS>BOND
       1        1        2 1        
       2        1       29 1        
       3        1       30 1        
       4        1       31 1        
       5        2        3 1        
       6        2       32 1        
       7        2       33 1        
       8        3        4 2        
       9        3        5 am       
      10        5        6 1        
      11        5       34 1        
      12        6        7 1        
      13        6       35 1        
      14        6       36 1        
      15        7        8 2        
      16        7        9 1        
      17        9       10 1        
      18       10       11 1        
      19       10       12 1        
      20       10       37 1        
      21       11       38 1        
      22       11       39 1        
      23       11       40 1        
      24       12       13 2        
      25       12       14 am       
      26       14       15 1        
      27       14       41 1        
      28       15       20 ar       
      29       15       16 ar       
      30       16       17 ar       
      31       16       42 1        
      32       17       18 ar       
      33       17       43 1        
      34       18       23 1        
      35       18       19 ar       
      36       19       20 ar       
      37       19       21 1        
      38       20       44 1        
      39       21       22 1        
      40       22       28 1        
      41       22       23 1        
      42       22       24 1        
      43       24       25 1        
      44       24       45 1        
      45       24       46 1        
      46       25       26 1        
      47       25       47 1        
      48       25       48 1        
      49       26       27 1        
      50       26       49 1        
      51       26       50 1        
      52       27       28 1        
      53       27       51 1        
      54       27       52 1        
      55       28       53 1        
      56       28       54 1        

