#        1GCZ_R01_S0001_C0000_L00013_S0001_C0000_G0010_E0001.mol2
#        Tue Jun  6 14:14:37 2017
#        Descriptor:     12     1     7     8     8     9
#        Energy - RMSD - RMSD MassCentre:     -69.2473    999.9999    999.9999
#        Receptor:       1  Surface Point:     1  Conformer:     0
#        Ligand:        13  Surface Point:     1  Conformer:     0
#        BUDE Formal Charge: 0
#        ATOM Count: 37
#        Heavy ATOM Count: 18
@<TRIPOS>MOLECULE
ZINC61282005_1GCZ_R01_S0001_C0000_L00013_S0001_C0000_G0010_E0001
 37 37 0 0 0
SMALL
USER_CHARGES
@<TRIPOS>ATOM
       1 C1         0.1995   -1.4010    7.5345 C.3       1 <0>        -0.1160 
       2 C2        -0.4311   -0.9096    6.2570 C.ar      1 <0>        -0.0986 
       3 C3        -1.7308   -0.4345    6.2669 C.ar      1 <0>        -0.0818 
       4 C4        -2.3175    0.0184    5.0986 C.ar      1 <0>        -0.1283 
       5 C5        -1.6093   -0.0013    3.9148 C.ar      1 <0>        -0.0643 
       6 C6        -0.2977   -0.4792    3.8976 C.ar      1 <0>        -0.1243 
       7 C7         0.2903   -0.9293    5.0816 C.ar      1 <0>        -0.0546 
       8 C8         0.4668   -0.5034    2.6337 C.2       1 <0>         0.5131 
       9 O1         1.6078   -0.9198    2.6219 O.2       1 <0>        -0.5029 
      10 O2        -0.1015   -0.0634    1.4944 O.3       1 <0>        -0.3246 
      11 C9         0.6957   -0.1155    0.3095 C.3       1 <0>         0.0501 
      12 C10       -0.1007    0.4133   -0.8554 C.2       1 <0>         0.5179 
      13 O3        -1.2388    0.7971   -0.6876 O.2       1 <0>        -0.5155 
      14 N1         0.4519    0.4598   -2.0838 N.am      1 <0>        -0.6088 
      15 C11        1.8268   -0.0038   -2.2865 C.3       1 <0>         0.0676 
      16 C12       -0.3222    0.9738   -3.2163 C.3       1 <0>         0.1305 
      17 C13        0.3927    2.1874   -3.8139 C.3       1 <0>        -0.1630 
      18 C14       -0.4531   -0.1165   -4.2816 C.3       1 <0>        -0.1617 
      19 H1         0.6953   -0.5708    8.0377 H         1 <0>         0.0743 
      20 H2        -0.5719   -1.8120    8.1858 H         1 <0>         0.0707 
      21 H3         0.9311   -2.1754    7.3041 H         1 <0>         0.0700 
      22 H4        -2.2899   -0.4176    7.1908 H         1 <0>         0.1310 
      23 H5        -3.3322    0.3879    5.1134 H         1 <0>         0.1343 
      24 H6        -2.0686    0.3519    3.0034 H         1 <0>         0.1416 
      25 H7         1.3060   -1.2962    5.0761 H         1 <0>         0.1381 
      26 H8         1.5890    0.4940    0.4456 H         1 <0>         0.1010 
      27 H9         0.9865   -1.1474    0.1124 H         1 <0>         0.1011 
      28 H10        1.8199   -1.0664   -2.5292 H         1 <0>         0.0629 
      29 H11        2.2809    0.5531   -3.1061 H         1 <0>         0.0807 
      30 H12        2.4026    0.1571   -1.3750 H         1 <0>         0.0734 
      31 H13       -1.3142    1.2687   -2.8743 H         1 <0>         0.1038 
      32 H14        1.3848    1.8926   -4.1559 H         1 <0>         0.0602 
      33 H15       -0.1833    2.5700   -4.6565 H         1 <0>         0.0720 
      34 H16        0.4859    2.9642   -3.0549 H         1 <0>         0.0599 
      35 H17       -1.0291    0.2659   -5.1242 H         1 <0>         0.0713 
      36 H18        0.5391   -0.4113   -4.6235 H         1 <0>         0.0596 
      37 H19       -0.9624   -0.9811   -3.8559 H         1 <0>         0.0594 
@<TRIPOS>BOND
       1        1        2 1        
       2        1       19 1        
       3        1       20 1        
       4        1       21 1        
       5        2        7 ar       
       6        2        3 ar       
       7        3        4 ar       
       8        3       22 1        
       9        4        5 ar       
      10        4       23 1        
      11        5        6 ar       
      12        5       24 1        
      13        6        7 ar       
      14        6        8 1        
      15        7       25 1        
      16        8        9 2        
      17        8       10 1        
      18       10       11 1        
      19       11       12 1        
      20       11       26 1        
      21       11       27 1        
      22       12       13 2        
      23       12       14 am       
      24       14       15 1        
      25       14       16 1        
      26       15       28 1        
      27       15       29 1        
      28       15       30 1        
      29       16       17 1        
      30       16       18 1        
      31       16       31 1        
      32       17       32 1        
      33       17       33 1        
      34       17       34 1        
      35       18       35 1        
      36       18       36 1        
      37       18       37 1        

