#        1GCZ_R01_S0001_C0000_L00013_S0001_C0001_G0010_E0001.mol2
#        Tue Jun  6 09:59:20 2017
#        Descriptor:     15    16    23     9     9    10
#        Energy - RMSD - RMSD MassCentre:     -75.2188    999.9999    999.9999
#        Receptor:       1  Surface Point:     1  Conformer:     0
#        Ligand:        13  Surface Point:     1  Conformer:     1
#        BUDE Formal Charge: 0
#        ATOM Count: 37
#        Heavy ATOM Count: 18
@<TRIPOS>MOLECULE
ZINC61282005_1GCZ_R01_S0001_C0000_L00013_S0001_C0001_G0010_E0001
 37 37 0 0 0
SMALL
USER_CHARGES
@<TRIPOS>ATOM
       1 C1        -0.4692   -0.4058   -3.9357 C.3       1 <0>        -0.1160 
       2 C2        -0.2648    0.3435   -2.6409 C.ar      1 <0>        -0.0986 
       3 C3        -0.3347    1.7413   -2.6104 C.ar      1 <0>        -0.0818 
       4 C4        -0.1451    2.4376   -1.4135 C.ar      1 <0>        -0.1283 
       5 C5         0.1209    1.7336   -0.2330 C.ar      1 <0>        -0.0643 
       6 C6         0.1935    0.3356   -0.2406 C.ar      1 <0>        -0.1243 
       7 C7        -0.0037   -0.3429   -1.4491 C.ar      1 <0>        -0.0546 
       8 C8         0.4729   -0.4039    1.0106 C.2       1 <0>         0.5131 
       9 O1         0.5340   -1.5973    0.9994 O.2       1 <0>        -0.5029 
      10 O2         0.6589    0.2701    2.1655 O.3       1 <0>        -0.3246 
      11 C9         0.9261   -0.4873    3.3487 C.3       1 <0>         0.0501 
      12 C10        1.1008    0.4521    4.5178 C.2       1 <0>         0.5179 
      13 O3         0.2931    0.4358    5.4453 O.2       1 <0>        -0.5155 
      14 N1         2.1273    1.2973    4.5454 N.am      1 <0>        -0.6088 
      15 C11        3.0926    1.3168    3.4369 C.3       1 <0>         0.0676 
      16 C12        2.2959    2.2111    5.6843 C.3       1 <0>         0.1305 
      17 C13        1.0793    3.1265    5.7852 C.3       1 <0>        -0.1630 
      18 C14        2.4317    1.4005    6.9700 C.3       1 <0>        -0.1617 
      19 H1        -0.8881   -1.3872   -3.7237 H         1 <0>         0.0743 
      20 H2         0.4867   -0.5206   -4.4423 H         1 <0>         0.0707 
      21 H3        -1.1532    0.1514   -4.5723 H         1 <0>         0.0700 
      22 H4        -0.5412    2.3039   -3.5090 H         1 <0>         0.1310 
      23 H5        -0.1992    3.5162   -1.3979 H         1 <0>         0.1343 
      24 H6         0.2689    2.2879    0.6821 H         1 <0>         0.1416 
      25 H7         0.0421   -1.4219   -1.4598 H         1 <0>         0.1381 
      26 H8         1.8364   -1.0671    3.2110 H         1 <0>         0.1010 
      27 H9         0.0936   -1.1595    3.5456 H         1 <0>         0.1011 
      28 H10        2.5779    1.5733    2.5132 H         1 <0>         0.0629 
      29 H11        3.8633    2.0571    3.6410 H         1 <0>         0.0807 
      30 H12        3.5496    0.3345    3.3374 H         1 <0>         0.0734 
      31 H13        3.1912    2.8116    5.5372 H         1 <0>         0.1038 
      32 H14        0.1864    2.5256    5.9448 H         1 <0>         0.0602 
      33 H15        1.2100    3.8118    6.6201 H         1 <0>         0.0720 
      34 H16        0.9754    3.6936    4.8626 H         1 <0>         0.0599 
      35 H17        3.3067    0.7575    6.9017 H         1 <0>         0.0713 
      36 H18        1.5420    0.7898    7.1086 H         1 <0>         0.0596 
      37 H19        2.5431    2.0772    7.8146 H         1 <0>         0.0594 
@<TRIPOS>BOND
       1        1        2 1        
       2        1       19 1        
       3        1       20 1        
       4        1       21 1        
       5        2        7 ar       
       6        2        3 ar       
       7        3        4 ar       
       8        3       22 1        
       9        4        5 ar       
      10        4       23 1        
      11        5        6 ar       
      12        5       24 1        
      13        6        7 ar       
      14        6        8 1        
      15        7       25 1        
      16        8        9 2        
      17        8       10 1        
      18       10       11 1        
      19       11       12 1        
      20       11       26 1        
      21       11       27 1        
      22       12       13 2        
      23       12       14 am       
      24       14       15 1        
      25       14       16 1        
      26       15       28 1        
      27       15       29 1        
      28       15       30 1        
      29       16       17 1        
      30       16       18 1        
      31       16       31 1        
      32       17       32 1        
      33       17       33 1        
      34       17       34 1        
      35       18       35 1        
      36       18       36 1        
      37       18       37 1        

