#        1GCZ_R01_S0001_C0000_L00013_S0001_C0001_G0010_E0001.mol2
#        Tue Jun  6 14:14:38 2017
#        Descriptor:     15    32     5     9     8    10
#        Energy - RMSD - RMSD MassCentre:     -72.0780    999.9999    999.9999
#        Receptor:       1  Surface Point:     1  Conformer:     0
#        Ligand:        13  Surface Point:     1  Conformer:     1
#        BUDE Formal Charge: 0
#        ATOM Count: 37
#        Heavy ATOM Count: 18
@<TRIPOS>MOLECULE
ZINC61282005_1GCZ_R01_S0001_C0000_L00013_S0001_C0001_G0010_E0001
 37 37 0 0 0
SMALL
USER_CHARGES
@<TRIPOS>ATOM
       1 C1         1.2540   -0.0425    8.2690 C.3       1 <0>        -0.1160 
       2 C2         1.6444   -0.0829    6.8110 C.ar      1 <0>        -0.0986 
       3 C3         2.9866    0.0357    6.4316 C.ar      1 <0>        -0.0818 
       4 C4         3.3509   -0.0005    5.0828 C.ar      1 <0>        -0.1283 
       5 C5         2.3662   -0.1531    4.0994 C.ar      1 <0>        -0.0643 
       6 C6         1.0181   -0.2751    4.4568 C.ar      1 <0>        -0.1243 
       7 C7         0.6749   -0.2407    5.8136 C.ar      1 <0>        -0.0546 
       8 C8        -0.0187   -0.4383    3.4135 C.2       1 <0>         0.5131 
       9 O1        -1.1682   -0.5421    3.7232 O.2       1 <0>        -0.5029 
      10 O2         0.3342   -0.4700    2.1107 O.3       1 <0>        -0.3246 
      11 C9        -0.7023   -0.6296    1.1386 C.3       1 <0>         0.0501 
      12 C10       -0.0968   -0.6392   -0.2445 C.2       1 <0>         0.5179 
      13 O3        -0.1560   -1.6559   -0.9343 O.2       1 <0>        -0.5155 
      14 N1         0.5005    0.4509   -0.7176 N.am      1 <0>        -0.6088 
      15 C11        0.5712    1.6661    0.1067 C.3       1 <0>         0.0676 
      16 C12        1.0894    0.4399   -2.0643 C.3       1 <0>         0.1305 
      17 C13        2.1832   -0.6220   -2.1316 C.3       1 <0>        -0.1630 
      18 C14        0.0056    0.1207   -3.0899 C.3       1 <0>        -0.1617 
      19 H1         0.3532   -0.6338    8.4190 H         1 <0>         0.0743 
      20 H2         1.0659    0.9874    8.5650 H         1 <0>         0.0707 
      21 H3         2.0620   -0.4519    8.8716 H         1 <0>         0.0700 
      22 H4         3.7626    0.1516    7.1739 H         1 <0>         0.1310 
      23 H5         4.3883    0.0928    4.7973 H         1 <0>         0.1343 
      24 H6         2.6650   -0.1749    3.0617 H         1 <0>         0.1416 
      25 H7        -0.3623   -0.3432    6.0963 H         1 <0>         0.1381 
      26 H8        -1.4066    0.1958    1.2197 H         1 <0>         0.1010 
      27 H9        -1.2224   -1.5693    1.3127 H         1 <0>         0.1011 
      28 H10        1.1214    1.4519    1.0206 H         1 <0>         0.0629 
      29 H11        1.0803    2.4510   -0.4485 H         1 <0>         0.0807 
      30 H12       -0.4359    1.9928    0.3571 H         1 <0>         0.0734 
      31 H13        1.5176    1.4165   -2.2802 H         1 <0>         0.1038 
      32 H14        1.7515   -1.5997   -1.9278 H         1 <0>         0.0602 
      33 H15        2.6282   -0.6211   -3.1244 H         1 <0>         0.0720 
      34 H16        2.9483   -0.4011   -1.3903 H         1 <0>         0.0599 
      35 H17       -0.7673    0.8854   -3.0497 H         1 <0>         0.0713 
      36 H18       -0.4315   -0.8499   -2.8646 H         1 <0>         0.0596 
      37 H19        0.4441    0.0994   -4.0854 H         1 <0>         0.0594 
@<TRIPOS>BOND
       1        1        2 1        
       2        1       19 1        
       3        1       20 1        
       4        1       21 1        
       5        2        7 ar       
       6        2        3 ar       
       7        3        4 ar       
       8        3       22 1        
       9        4        5 ar       
      10        4       23 1        
      11        5        6 ar       
      12        5       24 1        
      13        6        7 ar       
      14        6        8 1        
      15        7       25 1        
      16        8        9 2        
      17        8       10 1        
      18       10       11 1        
      19       11       12 1        
      20       11       26 1        
      21       11       27 1        
      22       12       13 2        
      23       12       14 am       
      24       14       15 1        
      25       14       16 1        
      26       15       28 1        
      27       15       29 1        
      28       15       30 1        
      29       16       17 1        
      30       16       18 1        
      31       16       31 1        
      32       17       32 1        
      33       17       33 1        
      34       17       34 1        
      35       18       35 1        
      36       18       36 1        
      37       18       37 1        

