#        1GCZ_R01_S0001_C0000_L00013_S0001_C0002_G0010_E0001.mol2
#        Tue Jun  6 09:59:20 2017
#        Descriptor:     14    33     4     9     8     9
#        Energy - RMSD - RMSD MassCentre:     -76.3747    999.9999    999.9999
#        Receptor:       1  Surface Point:     1  Conformer:     0
#        Ligand:        13  Surface Point:     1  Conformer:     2
#        BUDE Formal Charge: 0
#        ATOM Count: 37
#        Heavy ATOM Count: 18
@<TRIPOS>MOLECULE
ZINC61282005_1GCZ_R01_S0001_C0000_L00013_S0001_C0002_G0010_E0001
 37 37 0 0 0
SMALL
USER_CHARGES
@<TRIPOS>ATOM
       1 C1         3.7126   -0.1923    4.7367 C.3       1 <0>        -0.1160 
       2 C2         2.2039   -0.2147    4.7895 C.ar      1 <0>        -0.0986 
       3 C3         1.5354   -0.1713    6.0186 C.ar      1 <0>        -0.0818 
       4 C4         0.1389   -0.1928    6.0706 C.ar      1 <0>        -0.1283 
       5 C5        -0.6011   -0.2618    4.8841 C.ar      1 <0>        -0.0643 
       6 C6         0.0470   -0.3043    3.6441 C.ar      1 <0>        -0.1243 
       7 C7         1.4464   -0.2774    3.6138 C.ar      1 <0>        -0.0546 
       8 C8        -0.7399   -0.3749    2.3927 C.2       1 <0>         0.5131 
       9 O1        -1.9339   -0.3959    2.4370 O.2       1 <0>        -0.5029 
      10 O2        -0.1085   -0.4156    1.2000 O.3       1 <0>        -0.3246 
      11 C9        -0.9108   -0.4835    0.0182 C.3       1 <0>         0.0501 
      12 C10       -0.0143   -0.5200   -1.1962 C.2       1 <0>         0.5179 
      13 O3         0.0104   -1.5200   -1.9120 O.2       1 <0>        -0.5155 
      14 N1         0.7487    0.5283   -1.4925 N.am      1 <0>        -0.6088 
      15 C11        0.7192    1.7234   -0.6371 C.3       1 <0>         0.0676 
      16 C12        1.6208    0.4911   -2.6751 C.3       1 <0>         0.1305 
      17 C13        2.6244   -0.6492   -2.5303 C.3       1 <0>        -0.1630 
      18 C14        0.7732    0.2682   -3.9243 C.3       1 <0>        -0.1617 
      19 H1         4.0355    0.2751    3.8088 H         1 <0>         0.0743 
      20 H2         4.0916   -1.2112    4.7811 H         1 <0>         0.0707 
      21 H3         4.0960    0.3752    5.5820 H         1 <0>         0.0700 
      22 H4         2.0866   -0.1155    6.9458 H         1 <0>         0.1310 
      23 H5        -0.3700   -0.1604    7.0226 H         1 <0>         0.1343 
      24 H6        -1.6794   -0.2815    4.9429 H         1 <0>         0.1416 
      25 H7         1.9523   -0.3009    2.6599 H         1 <0>         0.1381 
      26 H8        -1.5555    0.3914   -0.0340 H         1 <0>         0.1010 
      27 H9        -1.5214   -1.3836    0.0447 H         1 <0>         0.1011 
      28 H10        1.0353    1.4562    0.3692 H         1 <0>         0.0629 
      29 H11        1.3933    2.4751   -1.0421 H         1 <0>         0.0807 
      30 H12       -0.2928    2.1216   -0.6062 H         1 <0>         0.0734 
      31 H13        2.1541    1.4354   -2.7616 H         1 <0>         0.1038 
      32 H14        2.0904   -1.5943   -2.4564 H         1 <0>         0.0602 
      33 H15        3.2785   -0.6685   -3.3994 H         1 <0>         0.0720 
      34 H16        3.2186   -0.4966   -1.6317 H         1 <0>         0.0599 
      35 H17        0.0667    1.0883   -4.0334 H         1 <0>         0.0713 
      36 H18        0.2297   -0.6696   -3.8304 H         1 <0>         0.0596 
      37 H19        1.4201    0.2273   -4.7981 H         1 <0>         0.0594 
@<TRIPOS>BOND
       1        1        2 1        
       2        1       19 1        
       3        1       20 1        
       4        1       21 1        
       5        2        7 ar       
       6        2        3 ar       
       7        3        4 ar       
       8        3       22 1        
       9        4        5 ar       
      10        4       23 1        
      11        5        6 ar       
      12        5       24 1        
      13        6        7 ar       
      14        6        8 1        
      15        7       25 1        
      16        8        9 2        
      17        8       10 1        
      18       10       11 1        
      19       11       12 1        
      20       11       26 1        
      21       11       27 1        
      22       12       13 2        
      23       12       14 am       
      24       14       15 1        
      25       14       16 1        
      26       15       28 1        
      27       15       29 1        
      28       15       30 1        
      29       16       17 1        
      30       16       18 1        
      31       16       31 1        
      32       17       32 1        
      33       17       33 1        
      34       17       34 1        
      35       18       35 1        
      36       18       36 1        
      37       18       37 1        

