#        1GCZ_R01_S0001_C0000_L00013_S0001_C0003_G0010_E0001.mol2
#        Tue Jun  6 09:59:21 2017
#        Descriptor:     32    22    25     9     9    10
#        Energy - RMSD - RMSD MassCentre:     -70.0560    999.9999    999.9999
#        Receptor:       1  Surface Point:     1  Conformer:     0
#        Ligand:        13  Surface Point:     1  Conformer:     3
#        BUDE Formal Charge: 0
#        ATOM Count: 37
#        Heavy ATOM Count: 18
@<TRIPOS>MOLECULE
ZINC61282005_1GCZ_R01_S0001_C0000_L00013_S0001_C0003_G0010_E0001
 37 37 0 0 0
SMALL
USER_CHARGES
@<TRIPOS>ATOM
       1 C1         4.8828    0.3845    5.7362 C.3       1 <0>        -0.1160 
       2 C2         3.4890    0.8774    5.4294 C.ar      1 <0>        -0.0986 
       3 C3         2.9327    1.9344    6.1595 C.ar      1 <0>        -0.0818 
       4 C4         1.6425    2.3922    5.8782 C.ar      1 <0>        -0.1283 
       5 C5         0.8956    1.7880    4.8598 C.ar      1 <0>        -0.0643 
       6 C6         1.4333    0.7307    4.1162 C.ar      1 <0>        -0.1243 
       7 C7         2.7290    0.2901    4.4110 C.ar      1 <0>        -0.0546 
       8 C8         0.6405    0.0969    3.0392 C.2       1 <0>         0.5131 
       9 O1         1.1037   -0.8053    2.4071 O.2       1 <0>        -0.5029 
      10 O2        -0.6069    0.5382    2.7707 O.3       1 <0>        -0.3246 
      11 C9        -1.3345   -0.1052    1.7212 C.3       1 <0>         0.0501 
      12 C10       -0.6154    0.1037    0.4100 C.2       1 <0>         0.5179 
      13 O3        -0.1333   -0.8578   -0.1865 O.2       1 <0>        -0.5155 
      14 N1        -0.5029    1.3268   -0.1003 N.am      1 <0>        -0.6088 
      15 C11       -1.0791    2.4760    0.6127 C.3       1 <0>         0.0676 
      16 C12        0.1974    1.5284   -1.3768 C.3       1 <0>         0.1305 
      17 C13        1.6451    1.0659   -1.2404 C.3       1 <0>        -0.1630 
      18 C14       -0.4953    0.7191   -2.4694 C.3       1 <0>        -0.1617 
      19 H1         5.3321   -0.0175    4.8305 H         1 <0>         0.0743 
      20 H2         4.8325   -0.3949    6.4936 H         1 <0>         0.0707 
      21 H3         5.4862    1.2113    6.1049 H         1 <0>         0.0700 
      22 H4         3.4922    2.4164    6.9476 H         1 <0>         0.1310 
      23 H5         1.2192    3.2072    6.4465 H         1 <0>         0.1343 
      24 H6        -0.1011    2.1517    4.6586 H         1 <0>         0.1416 
      25 H7         3.1530   -0.5193    3.8350 H         1 <0>         0.1381 
      26 H8        -2.3337    0.3206    1.6579 H         1 <0>         0.1010 
      27 H9        -1.4062   -1.1708    1.9290 H         1 <0>         0.1011 
      28 H10       -0.6124    2.5658    1.5914 H         1 <0>         0.0629 
      29 H11       -0.9004    3.3837    0.0402 H         1 <0>         0.0807 
      30 H12       -2.1501    2.3273    0.7332 H         1 <0>         0.0734 
      31 H13        0.1766    2.5843   -1.6383 H         1 <0>         0.1038 
      32 H14        1.6648    0.0069   -0.9911 H         1 <0>         0.0602 
      33 H15        2.1671    1.2274   -2.1812 H         1 <0>         0.0720 
      34 H16        2.1339    1.6339   -0.4516 H         1 <0>         0.0599 
      35 H17       -1.5236    1.0585   -2.5743 H         1 <0>         0.0713 
      36 H18       -0.4862   -0.3350   -2.1999 H         1 <0>         0.0596 
      37 H19        0.0310    0.8578   -3.4114 H         1 <0>         0.0594 
@<TRIPOS>BOND
       1        1        2 1        
       2        1       19 1        
       3        1       20 1        
       4        1       21 1        
       5        2        7 ar       
       6        2        3 ar       
       7        3        4 ar       
       8        3       22 1        
       9        4        5 ar       
      10        4       23 1        
      11        5        6 ar       
      12        5       24 1        
      13        6        7 ar       
      14        6        8 1        
      15        7       25 1        
      16        8        9 2        
      17        8       10 1        
      18       10       11 1        
      19       11       12 1        
      20       11       26 1        
      21       11       27 1        
      22       12       13 2        
      23       12       14 am       
      24       14       15 1        
      25       14       16 1        
      26       15       28 1        
      27       15       29 1        
      28       15       30 1        
      29       16       17 1        
      30       16       18 1        
      31       16       31 1        
      32       17       32 1        
      33       17       33 1        
      34       17       34 1        
      35       18       35 1        
      36       18       36 1        
      37       18       37 1        

