#        1GCZ_R01_S0001_C0000_L00013_S0001_C0003_G0010_E0001.mol2
#        Tue Jun  6 14:14:41 2017
#        Descriptor:     11    33     2     9     8     8
#        Energy - RMSD - RMSD MassCentre:     -65.6051    999.9999    999.9999
#        Receptor:       1  Surface Point:     1  Conformer:     0
#        Ligand:        13  Surface Point:     1  Conformer:     3
#        BUDE Formal Charge: 0
#        ATOM Count: 37
#        Heavy ATOM Count: 18
@<TRIPOS>MOLECULE
ZINC61282005_1GCZ_R01_S0001_C0000_L00013_S0001_C0003_G0010_E0001
 37 37 0 0 0
SMALL
USER_CHARGES
@<TRIPOS>ATOM
       1 C1         2.3514   -1.2855    5.0926 C.3       1 <0>        -0.1160 
       2 C2         1.6608   -0.3041    4.1763 C.ar      1 <0>        -0.0986 
       3 C3         1.5635    1.0477    4.5271 C.ar      1 <0>        -0.0818 
       4 C4         0.9241    1.9582    3.6812 C.ar      1 <0>        -0.1283 
       5 C5         0.3718    1.5168    2.4729 C.ar      1 <0>        -0.0643 
       6 C6         0.4593    0.1698    2.1018 C.ar      1 <0>        -0.1243 
       7 C7         1.1076   -0.7251    2.9612 C.ar      1 <0>        -0.0546 
       8 C8        -0.1242   -0.2913    0.8223 C.2       1 <0>         0.5131 
       9 O1        -0.0470   -1.4421    0.5097 O.2       1 <0>        -0.5029 
      10 O2        -0.7442    0.5889    0.0076 O.3       1 <0>        -0.3246 
      11 C9        -1.2926    0.0969   -1.2180 C.3       1 <0>         0.0501 
      12 C10       -0.1800   -0.4381   -2.0873 C.2       1 <0>         0.5179 
      13 O3        -0.1329   -1.6374   -2.3563 O.2       1 <0>        -0.5155 
      14 N1         0.7493    0.3864   -2.5622 N.am      1 <0>        -0.6088 
      15 C11        0.6931    1.8198   -2.2405 C.3       1 <0>         0.0676 
      16 C12        1.8318   -0.1361   -3.4082 C.3       1 <0>         0.1305 
      17 C13        2.6385   -1.1657   -2.6224 C.3       1 <0>        -0.1630 
      18 C14        1.2341   -0.7953   -4.6479 C.3       1 <0>        -0.1617 
      19 H1         2.7850   -2.0893    4.5014 H         1 <0>         0.0743 
      20 H2         1.6276   -1.6987    5.7920 H         1 <0>         0.0707 
      21 H3         3.1382   -0.7745    5.6435 H         1 <0>         0.0700 
      22 H4         1.9847    1.4099    5.4533 H         1 <0>         0.1310 
      23 H5         0.8515    2.9993    3.9590 H         1 <0>         0.1343 
      24 H6        -0.1222    2.2332    1.8333 H         1 <0>         0.1416 
      25 H7         1.1864   -1.7640    2.6766 H         1 <0>         0.1381 
      26 H8        -1.8018    0.9054   -1.7386 H         1 <0>         0.1010 
      27 H9        -2.0011   -0.7008   -1.0049 H         1 <0>         0.1011 
      28 H10        0.7637    1.9519   -1.1629 H         1 <0>         0.0629 
      29 H11        1.5218    2.3321   -2.7246 H         1 <0>         0.0807 
      30 H12       -0.2479    2.2340   -2.5964 H         1 <0>         0.0734 
      31 H13        2.4826    0.6820   -3.7098 H         1 <0>         0.1038 
      32 H14        1.9894   -1.9893   -2.3322 H         1 <0>         0.0602 
      33 H15        3.4478   -1.5428   -3.2441 H         1 <0>         0.0720 
      34 H16        3.0524   -0.6981   -1.7315 H         1 <0>         0.0599 
      35 H17        0.6697   -0.0572   -5.2139 H         1 <0>         0.0713 
      36 H18        0.5726   -1.6041   -4.3445 H         1 <0>         0.0596 
      37 H19        2.0347   -1.1938   -5.2675 H         1 <0>         0.0594 
@<TRIPOS>BOND
       1        1        2 1        
       2        1       19 1        
       3        1       20 1        
       4        1       21 1        
       5        2        7 ar       
       6        2        3 ar       
       7        3        4 ar       
       8        3       22 1        
       9        4        5 ar       
      10        4       23 1        
      11        5        6 ar       
      12        5       24 1        
      13        6        7 ar       
      14        6        8 1        
      15        7       25 1        
      16        8        9 2        
      17        8       10 1        
      18       10       11 1        
      19       11       12 1        
      20       11       26 1        
      21       11       27 1        
      22       12       13 2        
      23       12       14 am       
      24       14       15 1        
      25       14       16 1        
      26       15       28 1        
      27       15       29 1        
      28       15       30 1        
      29       16       17 1        
      30       16       18 1        
      31       16       31 1        
      32       17       32 1        
      33       17       33 1        
      34       17       34 1        
      35       18       35 1        
      36       18       36 1        
      37       18       37 1        

