#        1GCZ_R01_S0001_C0000_L00013_S0001_C0004_G0010_E0001.mol2
#        Tue Jun  6 09:59:21 2017
#        Descriptor:     22    18    16    10     8    11
#        Energy - RMSD - RMSD MassCentre:     -63.4632    999.9999    999.9999
#        Receptor:       1  Surface Point:     1  Conformer:     0
#        Ligand:        13  Surface Point:     1  Conformer:     4
#        BUDE Formal Charge: 0
#        ATOM Count: 37
#        Heavy ATOM Count: 18
@<TRIPOS>MOLECULE
ZINC61282005_1GCZ_R01_S0001_C0000_L00013_S0001_C0004_G0010_E0001
 37 37 0 0 0
SMALL
USER_CHARGES
@<TRIPOS>ATOM
       1 C1         0.9598    0.7656   -1.9734 C.3       1 <0>        -0.1160 
       2 C2         0.4988   -0.0646   -0.7996 C.ar      1 <0>        -0.0986 
       3 C3        -0.1297   -1.2984   -1.0055 C.ar      1 <0>        -0.0818 
       4 C4        -0.5583   -2.0686    0.0792 C.ar      1 <0>        -0.1283 
       5 C5        -0.3619   -1.6030    1.3848 C.ar      1 <0>        -0.0643 
       6 C6         0.2659   -0.3728    1.6134 C.ar      1 <0>        -0.1243 
       7 C7         0.6916    0.3812    0.5133 C.ar      1 <0>        -0.0546 
       8 C8         0.4732    0.1139    2.9956 C.2       1 <0>         0.5131 
       9 O1         0.1043   -0.5434    3.9229 O.2       1 <0>        -0.5029 
      10 O2         1.0793    1.3012    3.2090 O.3       1 <0>        -0.3246 
      11 C9         1.2575    1.7298    4.5615 C.3       1 <0>         0.0501 
      12 C10        2.1611    0.7579    5.2816 C.2       1 <0>         0.5179 
      13 O3         1.7223    0.0856    6.2134 O.2       1 <0>        -0.5155 
      14 N1         3.4313    0.6283    4.9091 N.am      1 <0>        -0.6088 
      15 C11        3.9558    1.4318    3.7954 C.3       1 <0>         0.0676 
      16 C12        4.3097   -0.3184    5.6112 C.3       1 <0>         0.1305 
      17 C13        4.4093    0.0763    7.0818 C.3       1 <0>        -0.1630 
      18 C14        3.7316   -1.7261    5.4994 C.3       1 <0>        -0.1617 
      19 H1         1.8223    1.3602   -1.6797 H         1 <0>         0.0743 
      20 H2         0.1543    1.4253   -2.2889 H         1 <0>         0.0707 
      21 H3         1.2346    0.1086   -2.7959 H         1 <0>         0.0700 
      22 H4        -0.2890   -1.6776   -2.0041 H         1 <0>         0.1310 
      23 H5        -1.0436   -3.0189   -0.0873 H         1 <0>         0.1343 
      24 H6        -0.7029   -2.2092    2.2110 H         1 <0>         0.1416 
      25 H7         1.1846    1.3270    0.6832 H         1 <0>         0.1381 
      26 H8         0.2919    1.7652    5.0617 H         1 <0>         0.1010 
      27 H9         1.7087    2.7198    4.5725 H         1 <0>         0.1011 
      28 H10        3.8698    2.4886    4.0397 H         1 <0>         0.0629 
      29 H11        5.0013    1.1811    3.6292 H         1 <0>         0.0807 
      30 H12        3.3835    1.2195    2.8948 H         1 <0>         0.0734 
      31 H13        5.2999   -0.2955    5.1611 H         1 <0>         0.1038 
      32 H14        3.4203    0.0409    7.5339 H         1 <0>         0.0602 
      33 H15        5.0700   -0.6166    7.5987 H         1 <0>         0.0720 
      34 H16        4.8084    1.0854    7.1596 H         1 <0>         0.0599 
      35 H17        3.6728   -2.0111    4.4511 H         1 <0>         0.0713 
      36 H18        2.7357   -1.7443    5.9372 H         1 <0>         0.0596 
      37 H19        4.3747   -2.4248    6.0304 H         1 <0>         0.0594 
@<TRIPOS>BOND
       1        1        2 1        
       2        1       19 1        
       3        1       20 1        
       4        1       21 1        
       5        2        7 ar       
       6        2        3 ar       
       7        3        4 ar       
       8        3       22 1        
       9        4        5 ar       
      10        4       23 1        
      11        5        6 ar       
      12        5       24 1        
      13        6        7 ar       
      14        6        8 1        
      15        7       25 1        
      16        8        9 2        
      17        8       10 1        
      18       10       11 1        
      19       11       12 1        
      20       11       26 1        
      21       11       27 1        
      22       12       13 2        
      23       12       14 am       
      24       14       15 1        
      25       14       16 1        
      26       15       28 1        
      27       15       29 1        
      28       15       30 1        
      29       16       17 1        
      30       16       18 1        
      31       16       31 1        
      32       17       32 1        
      33       17       33 1        
      34       17       34 1        
      35       18       35 1        
      36       18       36 1        
      37       18       37 1        

