#        1GCZ_R01_S0001_C0000_L00013_S0001_C0004_G0010_E0001.mol2
#        Tue Jun  6 14:14:43 2017
#        Descriptor:     24    15    20     7     8    12
#        Energy - RMSD - RMSD MassCentre:     -52.9137    999.9999    999.9999
#        Receptor:       1  Surface Point:     1  Conformer:     0
#        Ligand:        13  Surface Point:     1  Conformer:     4
#        BUDE Formal Charge: 0
#        ATOM Count: 37
#        Heavy ATOM Count: 18
@<TRIPOS>MOLECULE
ZINC61282005_1GCZ_R01_S0001_C0000_L00013_S0001_C0004_G0010_E0001
 37 37 0 0 0
SMALL
USER_CHARGES
@<TRIPOS>ATOM
       1 C1        -0.5698    2.3304   -0.5593 C.3       1 <0>        -0.1160 
       2 C2        -0.6201    0.9470    0.0435 C.ar      1 <0>        -0.0986 
       3 C3        -0.0280   -0.1368   -0.6154 C.ar      1 <0>        -0.0818 
       4 C4        -0.0738   -1.4187   -0.0601 C.ar      1 <0>        -0.1283 
       5 C5        -0.7202   -1.6244    1.1645 C.ar      1 <0>        -0.0643 
       6 C6        -1.3175   -0.5543    1.8411 C.ar      1 <0>        -0.1243 
       7 C7        -1.2566    0.7224    1.2700 C.ar      1 <0>        -0.0546 
       8 C8        -1.9977   -0.7767    3.1366 C.2       1 <0>         0.5131 
       9 O1        -2.0392   -1.8732    3.6100 O.2       1 <0>        -0.5029 
      10 O2        -2.5717    0.2598    3.7839 O.3       1 <0>        -0.3246 
      11 C9        -3.2173   -0.0038    5.0323 C.3       1 <0>         0.0501 
      12 C10       -2.1981   -0.4992    6.0302 C.2       1 <0>         0.5179 
      13 O3        -2.2720   -1.6471    6.4657 O.2       1 <0>        -0.5155 
      14 N1        -1.2205    0.3048    6.4385 N.am      1 <0>        -0.6088 
      15 C11       -1.1322    1.6768    5.9180 C.3       1 <0>         0.0676 
      16 C12       -0.2291   -0.1790    7.4100 C.3       1 <0>         0.1305 
      17 C13       -0.9353   -0.5664    8.7060 C.3       1 <0>        -0.1630 
      18 C14        0.4899   -1.3972    6.8377 C.3       1 <0>        -0.1617 
      19 H1        -0.5826    3.0726    0.2361 H         1 <0>         0.0743 
      20 H2        -1.4331    2.4755   -1.2053 H         1 <0>         0.0707 
      21 H3         0.3424    2.4384   -1.1422 H         1 <0>         0.0700 
      22 H4         0.4779   -0.0001   -1.5597 H         1 <0>         0.1310 
      23 H5         0.3842   -2.2503   -0.5748 H         1 <0>         0.1343 
      24 H6        -0.7495   -2.6221    1.5770 H         1 <0>         0.1416 
      25 H7        -1.7077    1.5537    1.7913 H         1 <0>         0.1381 
      26 H8        -3.9846   -0.7622    4.8917 H         1 <0>         0.1010 
      27 H9        -3.6742    0.9105    5.4052 H         1 <0>         0.1011 
      28 H10       -2.0359    2.2226    6.1811 H         1 <0>         0.0629 
      29 H11       -0.2677    2.1739    6.3530 H         1 <0>         0.0807 
      30 H12       -1.0278    1.6472    4.8355 H         1 <0>         0.0734 
      31 H13        0.4942    0.6082    7.6117 H         1 <0>         0.1038 
      32 H14       -1.6494   -1.3624    8.5052 H         1 <0>         0.0602 
      33 H15       -0.2000   -0.9120    9.4297 H         1 <0>         0.0720 
      34 H16       -1.4592    0.2994    9.1056 H         1 <0>         0.0599 
      35 H17        1.0034   -1.1167    5.9205 H         1 <0>         0.0713 
      36 H18       -0.2362   -2.1786    6.6233 H         1 <0>         0.0596 
      37 H19        1.2143   -1.7634    7.5622 H         1 <0>         0.0594 
@<TRIPOS>BOND
       1        1        2 1        
       2        1       19 1        
       3        1       20 1        
       4        1       21 1        
       5        2        7 ar       
       6        2        3 ar       
       7        3        4 ar       
       8        3       22 1        
       9        4        5 ar       
      10        4       23 1        
      11        5        6 ar       
      12        5       24 1        
      13        6        7 ar       
      14        6        8 1        
      15        7       25 1        
      16        8        9 2        
      17        8       10 1        
      18       10       11 1        
      19       11       12 1        
      20       11       26 1        
      21       11       27 1        
      22       12       13 2        
      23       12       14 am       
      24       14       15 1        
      25       14       16 1        
      26       15       28 1        
      27       15       29 1        
      28       15       30 1        
      29       16       17 1        
      30       16       18 1        
      31       16       31 1        
      32       17       32 1        
      33       17       33 1        
      34       17       34 1        
      35       18       35 1        
      36       18       36 1        
      37       18       37 1        

