#        1GCZ_R01_S0001_C0000_L00003_S0001_C0022_G0010_E0001.mol2
#        Tue Jun  6 14:04:10 2017
#        Descriptor:     27     1     9    11     8    12
#        Energy - RMSD - RMSD MassCentre:     -74.1603    999.9999    999.9999
#        Receptor:       1  Surface Point:     1  Conformer:     0
#        Ligand:         3  Surface Point:     1  Conformer:    22
#        BUDE Formal Charge: 0
#        ATOM Count: 58
#        Heavy ATOM Count: 30
@<TRIPOS>MOLECULE
ZINC61580633_1GCZ_R01_S0001_C0000_L00003_S0001_C0022_G0010_E0001
 58 59 0 0 0
SMALL
USER_CHARGES
@<TRIPOS>ATOM
       1 C1         1.9873   -0.2055   -4.8054 C.3       1 <0>        -0.1532 
       2 C2         0.8822    0.7746   -4.4222 C.3       1 <0>        -0.1224 
       3 C3         0.2769    0.3596   -3.0818 C.3       1 <0>        -0.1198 
       4 C4        -0.8297    1.3410   -2.6981 C.3       1 <0>         0.0610 
       5 O1        -1.3961    0.9527   -1.4439 O.3       1 <0>        -0.3878 
       6 C5        -0.4259    0.9614   -0.3934 C.3       1 <0>         0.0487 
       7 C6        -1.0904    0.5391    0.9161 C.3       1 <0>         0.1244 
       8 N1        -0.0931    0.5481    1.9958 N.am      1 <0>        -0.7216 
       9 C7         0.8493   -0.3895    2.0380 C.2       1 <0>         0.5161 
      10 O2         0.8868   -1.2641    1.1741 O.2       1 <0>        -0.5151 
      11 C8         1.8738   -0.3803    3.1472 C.3       1 <0>         0.0490 
      12 O3         1.2409   -0.7246    4.3824 O.3       1 <0>        -0.3194 
      13 C9         2.0046   -0.7681    5.4947 C.2       1 <0>         0.5417 
      14 O4         3.1968   -0.5179    5.4272 O.2       1 <0>        -0.5337 
      15 C10        1.3954   -1.1195    6.7968 C.2       1 <0>        -0.2559 
      16 C11       -0.0390   -1.4267    6.9932 C.2       1 <0>        -0.0791 
      17 C12       -0.3312   -1.6985    8.2672 C.2       1 <0>        -0.2585 
      18 S1         1.0849   -1.6137    9.3254 S.3       1 <0>         0.3028 
      19 C13        2.0950   -1.1809    7.9380 C.2       1 <0>         0.0893 
      20 N2         3.4392   -0.9203    7.9845 N.am      1 <0>        -0.6099 
      21 C14        4.0920   -0.9936    9.1410 C.2       1 <0>         0.5551 
      22 O5         3.4886   -1.2957   10.1693 O.2       1 <0>        -0.4939 
      23 C15        5.5441   -0.7119    9.1895 C.ar      1 <0>        -0.1466 
      24 C16        6.1909   -0.7977   10.4282 C.ar      1 <0>        -0.0772 
      25 C17        7.5467   -0.4713   10.5508 C.ar      1 <0>        -0.1241 
      26 C18        8.2791   -0.0428    9.4376 C.ar      1 <0>        -0.0446 
      27 C19        7.6488   -0.0070    8.1880 C.ar      1 <0>        -0.1261 
      28 C20        6.3003   -0.3623    8.0644 C.ar      1 <0>        -0.0460 
      29 C21        9.7240    0.3641    9.6024 C.3       1 <0>        -0.0928 
      30 C22        9.7996    1.8581    9.9034 C.3       1 <0>        -0.1485 
      31 H1         1.5674   -1.2046   -4.9026 H         1 <0>         0.0567 
      32 H2         2.7535   -0.2071   -4.0331 H         1 <0>         0.0554 
      33 H3         2.4273    0.0976   -5.7530 H         1 <0>         0.0557 
      34 H4         1.2984    1.7762   -4.3368 H         1 <0>         0.0632 
      35 H5         0.1083    0.7667   -5.1868 H         1 <0>         0.0635 
      36 H6        -0.1403   -0.6416   -3.1661 H         1 <0>         0.0711 
      37 H7         1.0498    0.3680   -2.3161 H         1 <0>         0.0704 
      38 H8        -0.4135    2.3426   -2.6128 H         1 <0>         0.0498 
      39 H9        -1.6036    1.3330   -3.4628 H         1 <0>         0.0505 
      40 H10       -0.0167    1.9637   -0.2849 H         1 <0>         0.0584 
      41 H11        0.3757    0.2659   -0.6333 H         1 <0>         0.0702 
      42 H12       -1.4992   -0.4634    0.8092 H         1 <0>         0.0872 
      43 H13       -1.8916    1.2345    1.1575 H         1 <0>         0.0805 
      44 H14       -0.1229    1.2659    2.7059 H         1 <0>         0.4058 
      45 H15        2.6549   -1.1048    2.9265 H         1 <0>         0.1008 
      46 H16        2.3115    0.6124    3.2291 H         1 <0>         0.0999 
      47 H17       -0.7497   -1.4362    6.1801 H         1 <0>         0.1557 
      48 H18       -1.3271   -1.9540    8.5975 H         1 <0>         0.1929 
      49 H19        3.9347   -0.6723    7.1402 H         1 <0>         0.4317 
      50 H20        5.6391   -1.1144   11.3009 H         1 <0>         0.1287 
      51 H21        8.0365   -0.5473   11.5103 H         1 <0>         0.1326 
      52 H22        8.2182    0.2943    7.3212 H         1 <0>         0.1342 
      53 H23        5.8844   -0.3726    7.0678 H         1 <0>         0.1410 
      54 H24       10.2672    0.1505    8.6843 H         1 <0>         0.0777 
      55 H25       10.1660   -0.1951   10.4244 H         1 <0>         0.0771 
      56 H26        9.2667    2.0685   10.8283 H         1 <0>         0.0623 
      57 H27        9.3446    2.4154    9.0872 H         1 <0>         0.0572 
      58 H28       10.8413    2.1538   10.0090 H         1 <0>         0.0578 
@<TRIPOS>BOND
       1        1        2 1        
       2        1       31 1        
       3        1       32 1        
       4        1       33 1        
       5        2        3 1        
       6        2       34 1        
       7        2       35 1        
       8        3        4 1        
       9        3       36 1        
      10        3       37 1        
      11        4        5 1        
      12        4       38 1        
      13        4       39 1        
      14        5        6 1        
      15        6        7 1        
      16        6       40 1        
      17        6       41 1        
      18        7        8 1        
      19        7       42 1        
      20        7       43 1        
      21        8        9 am       
      22        8       44 1        
      23        9       10 2        
      24        9       11 1        
      25       11       12 1        
      26       11       45 1        
      27       11       46 1        
      28       12       13 1        
      29       13       14 2        
      30       13       15 1        
      31       15       19 2        
      32       15       16 1        
      33       16       17 2        
      34       16       47 1        
      35       17       18 1        
      36       17       48 1        
      37       18       19 1        
      38       19       20 1        
      39       20       21 am       
      40       20       49 1        
      41       21       22 2        
      42       21       23 1        
      43       23       28 ar       
      44       23       24 ar       
      45       24       25 ar       
      46       24       50 1        
      47       25       26 ar       
      48       25       51 1        
      49       26       27 ar       
      50       26       29 1        
      51       27       28 ar       
      52       27       52 1        
      53       28       53 1        
      54       29       30 1        
      55       29       54 1        
      56       29       55 1        
      57       30       56 1        
      58       30       57 1        
      59       30       58 1        

