#        1GCZ_R01_S0001_C0000_L00002_S0001_C0000_G0010_E0001.mol2
#        Tue Jun  6 09:54:30 2017
#        Descriptor:     30    14    20    15    10    15
#        Energy - RMSD - RMSD MassCentre:     -45.3716    999.9999    999.9999
#        Receptor:       1  Surface Point:     1  Conformer:     0
#        Ligand:         2  Surface Point:     1  Conformer:     0
#        BUDE Formal Charge: 0
#        ATOM Count: 22
#        Heavy ATOM Count: 16
@<TRIPOS>MOLECULE
ZINC02227500_0_1GCZ_R01_S0001_C0000_L00002_S0001_C0000_G0010_E0001
 22 24 1 0 0
SMALL
USER_CHARGES
INVALID_CHARGES
@<TRIPOS>ATOM
       1 C1         5.6493    2.1605    6.4429 C.3       1 <1>         0.3194 
       2 N1         7.0004    1.9997    6.9991 N.pl3     1 <1>        -0.4769 
       3 C2         7.2215    1.9190    8.2852 C.2       1 <1>         0.3171 
       4 C3         8.5715    1.7478    8.8667 C.2       1 <1>         0.3210 
       5 N2         8.5032    1.6993   10.1840 N.2       1 <1>        -0.2760 
       6 O1         7.1295    1.8384   10.4150 O.3       1 <1>         0.0506 
       7 N3         6.3272    1.9752    9.2543 N.2       1 <1>        -0.2740 
       8 N4         9.6956    1.6590    8.0886 N.pl3     1 <1>        -0.4794 
       9 C4         9.4704    1.7423    6.7399 C.2       1 <1>         0.3182 
      10 C5         8.1054    1.9133    6.1940 C.2       1 <1>         0.3113 
      11 N5         8.1550    1.9647    4.8760 N.2       1 <1>        -0.2636 
      12 O2         9.5452    1.8251    4.6284 O.3       1 <1>         0.0468 
      13 N6        10.3554    1.6889    5.7620 N.2       1 <1>        -0.2717 
      14 C6        11.0425    1.5005    8.6557 C.3       1 <1>         0.3187 
      15 O3        11.9527    2.3626    7.9680 O.3       1 <1>        -0.5831 
      16 O4         4.7363    1.3220    7.1560 O.3       1 <1>        -0.5790 
      17 H1         5.6545    1.8786    5.3921 H         1 <1>         0.0922 
      18 H2         5.3386    3.1988    6.5376 H         1 <1>         0.0977 
      19 H3        11.3640    0.4673    8.5414 H         1 <1>         0.0998 
      20 H4        11.0234    1.7605    9.7120 H         1 <1>         0.0941 
      21 H5        11.6723    3.2888    8.0356 H         1 <1>         0.4091 
      22 H6         5.0000    0.3905    7.0947 H         1 <1>         0.4075 
@<TRIPOS>BOND
       1        1        2 1        
       2        1       16 1        
       3        1       17 1        
       4        1       18 1        
       5        2       10 1        
       6        2        3 1        
       7        3        7 2        
       8        3        4 1        
       9        4        5 2        
      10        4        8 1        
      11        5        6 1        
      12        6        7 1        
      13        8        9 1        
      14        8       14 1        
      15        9       13 2        
      16        9       10 1        
      17       10       11 2        
      18       11       12 1        
      19       12       13 1        
      20       14       15 1        
      21       14       19 1        
      22       14       20 1        
      23       15       21 1        
      24       16       22 1        
@<TRIPOS>SUBSTRUCTURE
 1 **** 1 TEMP 0 **** **** 0 ROOT

