#        1GCZ_R01_S0001_C0000_L00013_S0001_C0005_G0010_E0001.mol2
#        Tue Jun  6 09:59:22 2017
#        Descriptor:     31     3    10     8     9    10
#        Energy - RMSD - RMSD MassCentre:     -58.9892    999.9999    999.9999
#        Receptor:       1  Surface Point:     1  Conformer:     0
#        Ligand:        13  Surface Point:     1  Conformer:     5
#        BUDE Formal Charge: 0
#        ATOM Count: 37
#        Heavy ATOM Count: 18
@<TRIPOS>MOLECULE
ZINC61282005_1GCZ_R01_S0001_C0000_L00013_S0001_C0005_G0010_E0001
 37 37 0 0 0
SMALL
USER_CHARGES
@<TRIPOS>ATOM
       1 C1         1.1389   -0.1061   -3.6798 C.3       1 <0>        -0.1160 
       2 C2         0.4132    0.3294   -2.4294 C.ar      1 <0>        -0.0986 
       3 C3        -0.5604    1.3337   -2.4865 C.ar      1 <0>        -0.0818 
       4 C4        -1.2331    1.7393   -1.3306 C.ar      1 <0>        -0.1283 
       5 C5        -0.9303    1.1401   -0.1020 C.ar      1 <0>        -0.0643 
       6 C6         0.0386    0.1328   -0.0226 C.ar      1 <0>        -0.1243 
       7 C7         0.6978   -0.2619   -1.1929 C.ar      1 <0>        -0.0546 
       8 C8         0.3535   -0.4989    1.2782 C.2       1 <0>         0.5131 
       9 O1         1.1814   -1.3583    1.3412 O.2       1 <0>        -0.5029 
      10 O2        -0.2949   -0.1038    2.3946 O.3       1 <0>        -0.3246 
      11 C9         0.0429   -0.7431    3.6283 C.3       1 <0>         0.0501 
      12 C10       -0.7914   -0.1580    4.7423 C.2       1 <0>         0.5179 
      13 O3        -1.6138   -0.8603    5.3283 O.2       1 <0>        -0.5155 
      14 N1        -0.6379    1.1164    5.0906 N.am      1 <0>        -0.6088 
      15 C11       -1.4509    1.6845    6.1754 C.3       1 <0>         0.0676 
      16 C12        0.3450    1.9559    4.3903 C.3       1 <0>         0.1305 
      17 C13       -0.2841    3.3064    4.0605 C.3       1 <0>        -0.1630 
      18 C14        1.5628    2.1659    5.2854 C.3       1 <0>        -0.1617 
      19 H1         1.4283   -1.1505   -3.5852 H         1 <0>         0.0743 
      20 H2         2.0279    0.5065   -3.8143 H         1 <0>         0.0707 
      21 H3         0.4825    0.0126   -4.5393 H         1 <0>         0.0700 
      22 H4        -0.8113    1.8073   -3.4241 H         1 <0>         0.1310 
      23 H5        -1.9822    2.5157   -1.3819 H         1 <0>         0.1343 
      24 H6        -1.4569    1.4687    0.7818 H         1 <0>         0.1416 
      25 H7         1.4400   -1.0447   -1.1398 H         1 <0>         0.1381 
      26 H8         1.0974   -0.5832    3.8434 H         1 <0>         0.1010 
      27 H9        -0.1541   -1.8103    3.5505 H         1 <0>         0.1011 
      28 H10       -1.2518    1.1440    7.0983 H         1 <0>         0.0629 
      29 H11       -1.1965    2.7341    6.3070 H         1 <0>         0.0807 
      30 H12       -2.5053    1.5954    5.9224 H         1 <0>         0.0734 
      31 H13        0.6512    1.4633    3.4698 H         1 <0>         0.1038 
      32 H14       -0.5787    3.8034    4.9825 H         1 <0>         0.0602 
      33 H15        0.4389    3.9228    3.5306 H         1 <0>         0.0720 
      34 H16       -1.1604    3.1542    3.4338 H         1 <0>         0.0599 
      35 H17        2.0177    1.2034    5.5095 H         1 <0>         0.0713 
      36 H18        1.2529    2.6457    6.2114 H         1 <0>         0.0596 
      37 H19        2.2844    2.7982    4.7724 H         1 <0>         0.0594 
@<TRIPOS>BOND
       1        1        2 1        
       2        1       19 1        
       3        1       20 1        
       4        1       21 1        
       5        2        7 ar       
       6        2        3 ar       
       7        3        4 ar       
       8        3       22 1        
       9        4        5 ar       
      10        4       23 1        
      11        5        6 ar       
      12        5       24 1        
      13        6        7 ar       
      14        6        8 1        
      15        7       25 1        
      16        8        9 2        
      17        8       10 1        
      18       10       11 1        
      19       11       12 1        
      20       11       26 1        
      21       11       27 1        
      22       12       13 2        
      23       12       14 am       
      24       14       15 1        
      25       14       16 1        
      26       15       28 1        
      27       15       29 1        
      28       15       30 1        
      29       16       17 1        
      30       16       18 1        
      31       16       31 1        
      32       17       32 1        
      33       17       33 1        
      34       17       34 1        
      35       18       35 1        
      36       18       36 1        
      37       18       37 1        

