#        1GCZ_R01_S0001_C0000_L00013_S0001_C0005_G0010_E0001.mol2
#        Tue Jun  6 14:14:44 2017
#        Descriptor:     12    14    24     8     8    10
#        Energy - RMSD - RMSD MassCentre:     -73.8402    999.9999    999.9999
#        Receptor:       1  Surface Point:     1  Conformer:     0
#        Ligand:        13  Surface Point:     1  Conformer:     5
#        BUDE Formal Charge: 0
#        ATOM Count: 37
#        Heavy ATOM Count: 18
@<TRIPOS>MOLECULE
ZINC61282005_1GCZ_R01_S0001_C0000_L00013_S0001_C0005_G0010_E0001
 37 37 0 0 0
SMALL
USER_CHARGES
@<TRIPOS>ATOM
       1 C1         1.2224   -1.1984   -3.6436 C.3       1 <0>        -0.1160 
       2 C2         0.7604   -0.4601   -2.4102 C.ar      1 <0>        -0.0986 
       3 C3         0.8019    0.9384   -2.3624 C.ar      1 <0>        -0.0818 
       4 C4         0.3757    1.6245   -1.2218 C.ar      1 <0>        -0.1283 
       5 C5        -0.0942    0.9092   -0.1138 C.ar      1 <0>        -0.0643 
       6 C6        -0.1457   -0.4895   -0.1409 C.ar      1 <0>        -0.1243 
       7 C7         0.2818   -1.1573   -1.2947 C.ar      1 <0>        -0.0546 
       8 C8        -0.6452   -1.2408    1.0322 C.2       1 <0>         0.5131 
       9 O1        -0.6874   -2.4347    1.0045 O.2       1 <0>        -0.5029 
      10 O2        -1.0537   -0.5769    2.1346 O.3       1 <0>        -0.3246 
      11 C9        -1.5285   -1.3454    3.2430 C.3       1 <0>         0.0501 
      12 C10       -1.9320   -0.4161    4.3626 C.2       1 <0>         0.5179 
      13 O3        -3.1096   -0.3490    4.7113 O.2       1 <0>        -0.5155 
      14 N1        -1.0150    0.3299    4.9720 N.am      1 <0>        -0.6088 
      15 C11       -1.4094    1.2340    6.0618 C.3       1 <0>         0.0676 
      16 C12        0.3925    0.2496    4.5553 C.3       1 <0>         0.1305 
      17 C13        0.9692    1.6577    4.4410 C.3       1 <0>        -0.1630 
      18 C14        1.1844   -0.5428    5.5915 C.3       1 <0>        -0.1617 
      19 H1         0.6751   -2.1346   -3.7312 H         1 <0>         0.0743 
      20 H2         2.2873   -1.4063   -3.5635 H         1 <0>         0.0707 
      21 H3         1.0369   -0.5855   -4.5232 H         1 <0>         0.0700 
      22 H4         1.1583    1.5099   -3.2067 H         1 <0>         0.1310 
      23 H5         0.4117    2.7035   -1.1915 H         1 <0>         0.1343 
      24 H6        -0.4157    1.4553    0.7608 H         1 <0>         0.1416 
      25 H7         0.2362   -2.2359   -1.3253 H         1 <0>         0.1381 
      26 H8        -0.7389   -2.0087    3.5900 H         1 <0>         0.1010 
      27 H9        -2.3889   -1.9354    2.9343 H         1 <0>         0.1011 
      28 H10       -1.8448    0.6547    6.8733 H         1 <0>         0.0629 
      29 H11       -0.5333    1.7668    6.4253 H         1 <0>         0.0807 
      30 H12       -2.1417    1.9487    5.6921 H         1 <0>         0.0734 
      31 H13        0.4564   -0.2486    3.5903 H         1 <0>         0.1038 
      32 H14        0.9161    2.1505    5.4096 H         1 <0>         0.0602 
      33 H15        2.0070    1.5989    4.1198 H         1 <0>         0.0720 
      34 H16        0.3950    2.2260    3.7123 H         1 <0>         0.0599 
      35 H17        0.7802   -1.5503    5.6629 H         1 <0>         0.0713 
      36 H18        1.1079   -0.0511    6.5590 H         1 <0>         0.0596 
      37 H19        2.2286   -0.5908    5.2898 H         1 <0>         0.0594 
@<TRIPOS>BOND
       1        1        2 1        
       2        1       19 1        
       3        1       20 1        
       4        1       21 1        
       5        2        7 ar       
       6        2        3 ar       
       7        3        4 ar       
       8        3       22 1        
       9        4        5 ar       
      10        4       23 1        
      11        5        6 ar       
      12        5       24 1        
      13        6        7 ar       
      14        6        8 1        
      15        7       25 1        
      16        8        9 2        
      17        8       10 1        
      18       10       11 1        
      19       11       12 1        
      20       11       26 1        
      21       11       27 1        
      22       12       13 2        
      23       12       14 am       
      24       14       15 1        
      25       14       16 1        
      26       15       28 1        
      27       15       29 1        
      28       15       30 1        
      29       16       17 1        
      30       16       18 1        
      31       16       31 1        
      32       17       32 1        
      33       17       33 1        
      34       17       34 1        
      35       18       35 1        
      36       18       36 1        
      37       18       37 1        

