#        1GCZ_R01_S0001_C0000_L00013_S0001_C0006_G0010_E0001.mol2
#        Tue Jun  6 09:59:23 2017
#        Descriptor:     12    33     9     8     9     8
#        Energy - RMSD - RMSD MassCentre:     -54.7114    999.9999    999.9999
#        Receptor:       1  Surface Point:     1  Conformer:     0
#        Ligand:        13  Surface Point:     1  Conformer:     6
#        BUDE Formal Charge: 0
#        ATOM Count: 37
#        Heavy ATOM Count: 18
@<TRIPOS>MOLECULE
ZINC61282005_1GCZ_R01_S0001_C0000_L00013_S0001_C0006_G0010_E0001
 37 37 0 0 0
SMALL
USER_CHARGES
@<TRIPOS>ATOM
       1 C1         0.9292    2.9822    3.8348 C.3       1 <0>        -0.1160 
       2 C2         0.2185    1.6653    3.6336 C.ar      1 <0>        -0.0986 
       3 C3        -0.4978    1.0772    4.6827 C.ar      1 <0>        -0.0818 
       4 C4        -1.1560   -0.1422    4.4995 C.ar      1 <0>        -0.1283 
       5 C5        -1.0974   -0.7855    3.2575 C.ar      1 <0>        -0.0643 
       6 C6        -0.3882   -0.2141    2.1943 C.ar      1 <0>        -0.1243 
       7 C7         0.2604    1.0098    2.3973 C.ar      1 <0>        -0.0546 
       8 C8        -0.3312   -0.8972    0.8826 C.2       1 <0>         0.5131 
       9 O1        -0.8916   -1.9410    0.7267 O.2       1 <0>        -0.5029 
      10 O2         0.3545   -0.3406   -0.1386 O.3       1 <0>        -0.3246 
      11 C9         0.3814   -1.0374   -1.3871 C.3       1 <0>         0.0501 
      12 C10        1.1955   -0.2491   -2.3849 C.2       1 <0>         0.5179 
      13 O3         2.2489   -0.7112   -2.8204 O.2       1 <0>        -0.5155 
      14 N1         0.7744    0.9445   -2.7933 N.am      1 <0>        -0.6088 
      15 C11        1.5681    1.7106   -3.7647 C.3       1 <0>         0.0676 
      16 C12       -0.4847    1.4968   -2.2728 C.3       1 <0>         0.1305 
      17 C13       -0.2801    2.9618   -1.8983 C.3       1 <0>        -0.1630 
      18 C14       -1.5667    1.3908   -3.3435 C.3       1 <0>        -0.1617 
      19 H1         0.9689    3.5201    2.8900 H         1 <0>         0.0743 
      20 H2         1.9407    2.7970    4.1901 H         1 <0>         0.0707 
      21 H3         0.3892    3.5764    4.5689 H         1 <0>         0.0700 
      22 H4        -0.5581    1.5575    5.6482 H         1 <0>         0.1310 
      23 H5        -1.7056   -0.5906    5.3139 H         1 <0>         0.1343 
      24 H6        -1.6085   -1.7290    3.1347 H         1 <0>         0.1416 
      25 H7         0.8018    1.4602    1.5785 H         1 <0>         0.1381 
      26 H8        -0.6340   -1.1541   -1.7599 H         1 <0>         0.1010 
      27 H9         0.8316   -2.0178   -1.2465 H         1 <0>         0.1011 
      28 H10        1.6554    1.1430   -4.6889 H         1 <0>         0.0629 
      29 H11        1.0757    2.6596   -3.9665 H         1 <0>         0.0807 
      30 H12        2.5595    1.8954   -3.3568 H         1 <0>         0.0734 
      31 H13       -0.7891    0.9357   -1.3917 H         1 <0>         0.1038 
      32 H14        0.0123    3.5241   -2.7827 H         1 <0>         0.0602 
      33 H15       -1.2082    3.3668   -1.5007 H         1 <0>         0.0720 
      34 H16        0.5013    3.0372   -1.1451 H         1 <0>         0.0599 
      35 H17       -1.7204    0.3448   -3.6006 H         1 <0>         0.0713 
      36 H18       -1.2546    1.9405   -4.2291 H         1 <0>         0.0596 
      37 H19       -2.4950    1.8116   -2.9630 H         1 <0>         0.0594 
@<TRIPOS>BOND
       1        1        2 1        
       2        1       19 1        
       3        1       20 1        
       4        1       21 1        
       5        2        7 ar       
       6        2        3 ar       
       7        3        4 ar       
       8        3       22 1        
       9        4        5 ar       
      10        4       23 1        
      11        5        6 ar       
      12        5       24 1        
      13        6        7 ar       
      14        6        8 1        
      15        7       25 1        
      16        8        9 2        
      17        8       10 1        
      18       10       11 1        
      19       11       12 1        
      20       11       26 1        
      21       11       27 1        
      22       12       13 2        
      23       12       14 am       
      24       14       15 1        
      25       14       16 1        
      26       15       28 1        
      27       15       29 1        
      28       15       30 1        
      29       16       17 1        
      30       16       18 1        
      31       16       31 1        
      32       17       32 1        
      33       17       33 1        
      34       17       34 1        
      35       18       35 1        
      36       18       36 1        
      37       18       37 1        

