#        1GCZ_R01_S0001_C0000_L00013_S0001_C0006_G0010_E0001.mol2
#        Tue Jun  6 14:14:45 2017
#        Descriptor:      3    18    27    10     8    14
#        Energy - RMSD - RMSD MassCentre:     -47.7007    999.9999    999.9999
#        Receptor:       1  Surface Point:     1  Conformer:     0
#        Ligand:        13  Surface Point:     1  Conformer:     6
#        BUDE Formal Charge: 0
#        ATOM Count: 37
#        Heavy ATOM Count: 18
@<TRIPOS>MOLECULE
ZINC61282005_1GCZ_R01_S0001_C0000_L00013_S0001_C0006_G0010_E0001
 37 37 0 0 0
SMALL
USER_CHARGES
@<TRIPOS>ATOM
       1 C1         6.3121   -0.2008    5.0708 C.3       1 <0>        -0.1160 
       2 C2         5.4794   -1.2406    5.7815 C.ar      1 <0>        -0.0986 
       3 C3         6.0939   -2.2745    6.4978 C.ar      1 <0>        -0.0818 
       4 C4         5.3256   -3.2389    7.1560 C.ar      1 <0>        -0.1283 
       5 C5         3.9283   -3.1750    7.0974 C.ar      1 <0>        -0.0643 
       6 C6         3.2933   -2.1486    6.3882 C.ar      1 <0>        -0.1243 
       7 C7         4.0810   -1.1902    5.7396 C.ar      1 <0>        -0.0546 
       8 C8         1.8158   -2.0843    6.3312 C.2       1 <0>         0.5131 
       9 O1         1.1588   -2.9103    6.8916 O.2       1 <0>        -0.5029 
      10 O2         1.2097   -1.0917    5.6455 O.3       1 <0>        -0.3246 
      11 C9        -0.2199   -1.0709    5.6186 C.3       1 <0>         0.0501 
      12 C10       -0.6899    0.1107    4.8045 C.2       1 <0>         0.5179 
      13 O3        -1.2981   -0.0717    3.7511 O.2       1 <0>        -0.5155 
      14 N1        -0.4468    1.3486    5.2256 N.am      1 <0>        -0.6088 
      15 C11       -0.9050    2.4978    4.4319 C.3       1 <0>         0.0676 
      16 C12        0.2801    1.5666    6.4847 C.3       1 <0>         0.1305 
      17 C13        1.3369    2.6481    6.2801 C.3       1 <0>        -0.1630 
      18 C14       -0.7002    2.0102    7.5667 C.3       1 <0>        -0.1617 
      19 H1         5.7629    0.7375    5.0311 H         1 <0>         0.0743 
      20 H2         6.5272   -0.5388    4.0593 H         1 <0>         0.0707 
      21 H3         7.2450   -0.0532    5.6108 H         1 <0>         0.0700 
      22 H4         7.1702   -2.3413    6.5581 H         1 <0>         0.1310 
      23 H5         5.8067   -4.0345    7.7056 H         1 <0>         0.1343 
      24 H6         3.3502   -3.9307    7.6085 H         1 <0>         0.1416 
      25 H7         3.5971   -0.3907    5.1982 H         1 <0>         0.1381 
      26 H8        -0.6012   -0.9855    6.6340 H         1 <0>         0.1010 
      27 H9        -0.5884   -1.9903    5.1684 H         1 <0>         0.1011 
      28 H10       -1.9891    2.4683    4.3446 H         1 <0>         0.0629 
      29 H11       -0.6053    3.4205    4.9243 H         1 <0>         0.0807 
      30 H12       -0.4594    2.4538    3.4405 H         1 <0>         0.0734 
      31 H13        0.7626    0.6402    6.7891 H         1 <0>         0.1038 
      32 H14        0.8522    3.5773    5.9877 H         1 <0>         0.0602 
      33 H15        1.8837    2.8001    7.2082 H         1 <0>         0.0720 
      34 H16        2.0269    2.3368    5.4987 H         1 <0>         0.0599 
      35 H17       -1.4458    1.2329    7.7204 H         1 <0>         0.0713 
      36 H18       -1.1923    2.9290    7.2546 H         1 <0>         0.0596 
      37 H19       -0.1602    2.1844    8.4950 H         1 <0>         0.0594 
@<TRIPOS>BOND
       1        1        2 1        
       2        1       19 1        
       3        1       20 1        
       4        1       21 1        
       5        2        7 ar       
       6        2        3 ar       
       7        3        4 ar       
       8        3       22 1        
       9        4        5 ar       
      10        4       23 1        
      11        5        6 ar       
      12        5       24 1        
      13        6        7 ar       
      14        6        8 1        
      15        7       25 1        
      16        8        9 2        
      17        8       10 1        
      18       10       11 1        
      19       11       12 1        
      20       11       26 1        
      21       11       27 1        
      22       12       13 2        
      23       12       14 am       
      24       14       15 1        
      25       14       16 1        
      26       15       28 1        
      27       15       29 1        
      28       15       30 1        
      29       16       17 1        
      30       16       18 1        
      31       16       31 1        
      32       17       32 1        
      33       17       33 1        
      34       17       34 1        
      35       18       35 1        
      36       18       36 1        
      37       18       37 1        

