#        1GCZ_R01_S0001_C0000_L00013_S0001_C0007_G0010_E0001.mol2
#        Tue Jun  6 09:59:23 2017
#        Descriptor:     34     3    10     9     9    13
#        Energy - RMSD - RMSD MassCentre:     -55.3419    999.9999    999.9999
#        Receptor:       1  Surface Point:     1  Conformer:     0
#        Ligand:        13  Surface Point:     1  Conformer:     7
#        BUDE Formal Charge: 0
#        ATOM Count: 37
#        Heavy ATOM Count: 18
@<TRIPOS>MOLECULE
ZINC61282005_1GCZ_R01_S0001_C0000_L00013_S0001_C0007_G0010_E0001
 37 37 0 0 0
SMALL
USER_CHARGES
@<TRIPOS>ATOM
       1 C1        -3.7863   -0.8554    3.0207 C.3       1 <0>        -0.1160 
       2 C2        -2.3883   -0.3042    2.8746 C.ar      1 <0>        -0.0986 
       3 C3        -2.0681    0.5471    1.8103 C.ar      1 <0>        -0.0818 
       4 C4        -0.7747    1.0582    1.6722 C.ar      1 <0>        -0.1283 
       5 C5         0.2131    0.7148    2.6030 C.ar      1 <0>        -0.0643 
       6 C6        -0.0859   -0.1335    3.6757 C.ar      1 <0>        -0.1243 
       7 C7        -1.3887   -0.6312    3.7984 C.ar      1 <0>        -0.0546 
       8 C8         0.9613   -0.4917    4.6583 C.2       1 <0>         0.5131 
       9 O1         0.7014   -1.2163    5.5723 O.2       1 <0>        -0.5029 
      10 O2         2.2111    0.0004    4.5218 O.3       1 <0>        -0.3246 
      11 C9         3.1892   -0.3737    5.4955 C.3       1 <0>         0.0501 
      12 C10        2.7716    0.1433    6.8513 C.2       1 <0>         0.5179 
      13 O3         2.4885   -0.6473    7.7500 O.2       1 <0>        -0.5155 
      14 N1         2.7095    1.4530    7.0745 N.am      1 <0>        -0.6088 
      15 C11        2.3028    1.9546    8.3950 C.3       1 <0>         0.0676 
      16 C12        3.0478    2.3979    6.0004 C.3       1 <0>         0.1305 
      17 C13        2.0030    3.5090    5.9540 C.3       1 <0>        -0.1630 
      18 C14        4.4228    3.0023    6.2702 C.3       1 <0>        -0.1617 
      19 H1        -3.9988   -1.0289    4.0735 H         1 <0>         0.0743 
      20 H2        -3.8644   -1.7934    2.4750 H         1 <0>         0.0707 
      21 H3        -4.5012   -0.1406    2.6188 H         1 <0>         0.0700 
      22 H4        -2.8153    0.8268    1.0824 H         1 <0>         0.1310 
      23 H5        -0.5345    1.7134    0.8479 H         1 <0>         0.1343 
      24 H6         1.2082    1.1156    2.4787 H         1 <0>         0.1416 
      25 H7        -1.6281   -1.2790    4.6288 H         1 <0>         0.1381 
      26 H8         4.1524    0.0544    5.2259 H         1 <0>         0.1010 
      27 H9         3.2707   -1.4580    5.5309 H         1 <0>         0.1011 
      28 H10        3.0046    1.6022    9.1481 H         1 <0>         0.0629 
      29 H11        2.2983    3.0425    8.3834 H         1 <0>         0.0807 
      30 H12        1.3050    1.5897    8.6292 H         1 <0>         0.0734 
      31 H13        3.0623    1.8728    5.0477 H         1 <0>         0.1038 
      32 H14        1.9981    4.0413    6.9029 H         1 <0>         0.0602 
      33 H15        2.2460    4.2011    5.1505 H         1 <0>         0.0720 
      34 H16        1.0212    3.0755    5.7755 H         1 <0>         0.0599 
      35 H17        5.1686    2.2104    6.2907 H         1 <0>         0.0713 
      36 H18        4.4108    3.5150    7.2298 H         1 <0>         0.0596 
      37 H19        4.6673    3.7116    5.4824 H         1 <0>         0.0594 
@<TRIPOS>BOND
       1        1        2 1        
       2        1       19 1        
       3        1       20 1        
       4        1       21 1        
       5        2        7 ar       
       6        2        3 ar       
       7        3        4 ar       
       8        3       22 1        
       9        4        5 ar       
      10        4       23 1        
      11        5        6 ar       
      12        5       24 1        
      13        6        7 ar       
      14        6        8 1        
      15        7       25 1        
      16        8        9 2        
      17        8       10 1        
      18       10       11 1        
      19       11       12 1        
      20       11       26 1        
      21       11       27 1        
      22       12       13 2        
      23       12       14 am       
      24       14       15 1        
      25       14       16 1        
      26       15       28 1        
      27       15       29 1        
      28       15       30 1        
      29       16       17 1        
      30       16       18 1        
      31       16       31 1        
      32       17       32 1        
      33       17       33 1        
      34       17       34 1        
      35       18       35 1        
      36       18       36 1        
      37       18       37 1        

