#        1GCZ_R01_S0001_C0000_L00013_S0001_C0007_G0010_E0001.mol2
#        Tue Jun  6 14:14:47 2017
#        Descriptor:     36     2     6    11     8    13
#        Energy - RMSD - RMSD MassCentre:     -50.4134    999.9999    999.9999
#        Receptor:       1  Surface Point:     1  Conformer:     0
#        Ligand:        13  Surface Point:     1  Conformer:     7
#        BUDE Formal Charge: 0
#        ATOM Count: 37
#        Heavy ATOM Count: 18
@<TRIPOS>MOLECULE
ZINC61282005_1GCZ_R01_S0001_C0000_L00013_S0001_C0007_G0010_E0001
 37 37 0 0 0
SMALL
USER_CHARGES
@<TRIPOS>ATOM
       1 C1        -2.4277    0.8949    4.9111 C.3       1 <0>        -0.1160 
       2 C2        -1.0930    0.6285    4.2576 C.ar      1 <0>        -0.0986 
       3 C3        -0.7984    1.1665    2.9991 C.ar      1 <0>        -0.0818 
       4 C4         0.4360    0.9210    2.3914 C.ar      1 <0>        -0.1283 
       5 C5         1.3875    0.1273    3.0430 C.ar      1 <0>        -0.0643 
       6 C6         1.1143   -0.4191    4.3026 C.ar      1 <0>        -0.1243 
       7 C7        -0.1265   -0.1576    4.8959 C.ar      1 <0>        -0.0546 
       8 C8         2.1244   -1.2557    4.9882 C.2       1 <0>         0.5131 
       9 O1         1.8867   -1.7200    6.0634 O.2       1 <0>        -0.5029 
      10 O2         3.3153   -1.4945    4.3986 O.3       1 <0>        -0.3246 
      11 C9         4.2594   -2.3085    5.0993 C.3       1 <0>         0.0501 
      12 C10        4.6538   -1.6254    6.3867 C.2       1 <0>         0.5179 
      13 O3         4.3601   -2.1341    7.4674 O.2       1 <0>        -0.5155 
      14 N1         5.3186   -0.4739    6.3531 N.am      1 <0>        -0.6088 
      15 C11        5.7018    0.1898    7.6074 C.3       1 <0>         0.0676 
      16 C12        5.6696    0.1341    5.0616 C.3       1 <0>         0.1305 
      17 C13        5.3566    1.6270    5.1014 C.3       1 <0>        -0.1630 
      18 C14        7.1582   -0.0675    4.7933 C.3       1 <0>        -0.1617 
      19 H1        -2.3111    0.8773    5.9927 H         1 <0>         0.0743 
      20 H2        -3.1378    0.1276    4.6098 H         1 <0>         0.0707 
      21 H3        -2.7943    1.8712    4.6011 H         1 <0>         0.0700 
      22 H4        -1.5169    1.7835    2.4800 H         1 <0>         0.1310 
      23 H5         0.6558    1.3382    1.4198 H         1 <0>         0.1343 
      24 H6         2.3345   -0.0555    2.5571 H         1 <0>         0.1416 
      25 H7        -0.3400   -0.5688    5.8715 H         1 <0>         0.1381 
      26 H8         5.1429   -2.4539    4.4812 H         1 <0>         0.1010 
      27 H9         3.8106   -3.2738    5.3243 H         1 <0>         0.1011 
      28 H10        6.3576   -0.4647    8.1778 H         1 <0>         0.0629 
      29 H11        6.2223    1.1181    7.3814 H         1 <0>         0.0807 
      30 H12        4.8088    0.4066    8.1898 H         1 <0>         0.0734 
      31 H13        5.0907   -0.3374    4.2703 H         1 <0>         0.1038 
      32 H14        5.9454    2.0996    5.8850 H         1 <0>         0.0602 
      33 H15        5.6040    2.0745    4.1412 H         1 <0>         0.0720 
      34 H16        4.2978    1.7696    5.3067 H         1 <0>         0.0599 
      35 H17        7.3777   -1.1323    4.7527 H         1 <0>         0.0713 
      36 H18        7.7356    0.3922    5.5927 H         1 <0>         0.0596 
      37 H19        7.4207    0.3941    3.8438 H         1 <0>         0.0594 
@<TRIPOS>BOND
       1        1        2 1        
       2        1       19 1        
       3        1       20 1        
       4        1       21 1        
       5        2        7 ar       
       6        2        3 ar       
       7        3        4 ar       
       8        3       22 1        
       9        4        5 ar       
      10        4       23 1        
      11        5        6 ar       
      12        5       24 1        
      13        6        7 ar       
      14        6        8 1        
      15        7       25 1        
      16        8        9 2        
      17        8       10 1        
      18       10       11 1        
      19       11       12 1        
      20       11       26 1        
      21       11       27 1        
      22       12       13 2        
      23       12       14 am       
      24       14       15 1        
      25       14       16 1        
      26       15       28 1        
      27       15       29 1        
      28       15       30 1        
      29       16       17 1        
      30       16       18 1        
      31       16       31 1        
      32       17       32 1        
      33       17       33 1        
      34       17       34 1        
      35       18       35 1        
      36       18       36 1        
      37       18       37 1        

