#        1GCZ_R01_S0001_C0000_L00013_S0001_C0008_G0010_E0001.mol2
#        Tue Jun  6 09:59:24 2017
#        Descriptor:     12    16    20     9     8    10
#        Energy - RMSD - RMSD MassCentre:     -57.9484    999.9999    999.9999
#        Receptor:       1  Surface Point:     1  Conformer:     0
#        Ligand:        13  Surface Point:     1  Conformer:     8
#        BUDE Formal Charge: 0
#        ATOM Count: 37
#        Heavy ATOM Count: 18
@<TRIPOS>MOLECULE
ZINC61282005_1GCZ_R01_S0001_C0000_L00013_S0001_C0008_G0010_E0001
 37 37 0 0 0
SMALL
USER_CHARGES
@<TRIPOS>ATOM
       1 C1         1.7577   -1.2671   -2.4236 C.3       1 <0>        -0.1160 
       2 C2         0.9285   -0.2050   -1.7423 C.ar      1 <0>        -0.0986 
       3 C3         0.5724    0.9643   -2.4246 C.ar      1 <0>        -0.0818 
       4 C4        -0.1945    1.9494   -1.7963 C.ar      1 <0>        -0.1283 
       5 C5        -0.6089    1.7697   -0.4711 C.ar      1 <0>        -0.0643 
       6 C6        -0.2654    0.6072    0.2291 C.ar      1 <0>        -0.1243 
       7 C7         0.4996   -0.3692   -0.4199 C.ar      1 <0>        -0.0546 
       8 C8        -0.7078    0.4210    1.6291 C.2       1 <0>         0.5131 
       9 O1        -1.3612    1.2645    2.1672 O.2       1 <0>        -0.5029 
      10 O2        -0.3731   -0.7026    2.2987 O.3       1 <0>        -0.3246 
      11 C9        -0.8234   -0.8378    3.6491 C.3       1 <0>         0.0501 
      12 C10       -0.2095    0.2519    4.4949 C.2       1 <0>         0.5179 
      13 O3        -0.9263    1.1120    5.0041 O.2       1 <0>        -0.5155 
      14 N1         1.1058    0.2825    4.6898 N.am      1 <0>        -0.6088 
      15 C11        1.7018    1.3440    5.5135 C.3       1 <0>         0.0676 
      16 C12        1.9626   -0.7455    4.0813 C.3       1 <0>         0.1305 
      17 C13        3.1872   -0.0821    3.4582 C.3       1 <0>        -0.1630 
      18 C14        2.4093   -1.7344    5.1543 C.3       1 <0>        -0.1617 
      19 H1         1.5117   -2.2414   -2.0066 H         1 <0>         0.0743 
      20 H2         2.8138   -1.0599   -2.2637 H         1 <0>         0.0707 
      21 H3         1.5444   -1.2641   -3.4904 H         1 <0>         0.0700 
      22 H4         0.8793    1.1222   -3.4480 H         1 <0>         0.1310 
      23 H5        -0.4642    2.8497   -2.3284 H         1 <0>         0.1343 
      24 H6        -1.1973    2.5428    0.0003 H         1 <0>         0.1416 
      25 H7         0.7603   -1.2723    0.1119 H         1 <0>         0.1381 
      26 H8        -0.5232   -1.8092    4.0366 H         1 <0>         0.1010 
      27 H9        -1.9076   -0.7534    3.6809 H         1 <0>         0.1011 
      28 H10        1.2975    1.2898    6.5221 H         1 <0>         0.0629 
      29 H11        2.7814    1.2130    5.5474 H         1 <0>         0.0807 
      30 H12        1.4671    2.3137    5.0797 H         1 <0>         0.0734 
      31 H13        1.4037   -1.2729    3.3111 H         1 <0>         0.1038 
      32 H14        3.7519    0.4346    4.2315 H         1 <0>         0.0602 
      33 H15        3.8146   -0.8414    2.9963 H         1 <0>         0.0720 
      34 H16        2.8668    0.6329    2.7033 H         1 <0>         0.0599 
      35 H17        1.5358   -2.2159    5.5890 H         1 <0>         0.0713 
      36 H18        2.9557   -1.2034    5.9309 H         1 <0>         0.0596 
      37 H19        3.0541   -2.4876    4.7064 H         1 <0>         0.0594 
@<TRIPOS>BOND
       1        1        2 1        
       2        1       19 1        
       3        1       20 1        
       4        1       21 1        
       5        2        7 ar       
       6        2        3 ar       
       7        3        4 ar       
       8        3       22 1        
       9        4        5 ar       
      10        4       23 1        
      11        5        6 ar       
      12        5       24 1        
      13        6        7 ar       
      14        6        8 1        
      15        7       25 1        
      16        8        9 2        
      17        8       10 1        
      18       10       11 1        
      19       11       12 1        
      20       11       26 1        
      21       11       27 1        
      22       12       13 2        
      23       12       14 am       
      24       14       15 1        
      25       14       16 1        
      26       15       28 1        
      27       15       29 1        
      28       15       30 1        
      29       16       17 1        
      30       16       18 1        
      31       16       31 1        
      32       17       32 1        
      33       17       33 1        
      34       17       34 1        
      35       18       35 1        
      36       18       36 1        
      37       18       37 1        

