#        1GCZ_R01_S0001_C0000_L00013_S0001_C0008_G0010_E0001.mol2
#        Tue Jun  6 14:14:48 2017
#        Descriptor:     16    16    27    10     9    13
#        Energy - RMSD - RMSD MassCentre:     -55.9638    999.9999    999.9999
#        Receptor:       1  Surface Point:     1  Conformer:     0
#        Ligand:        13  Surface Point:     1  Conformer:     8
#        BUDE Formal Charge: 0
#        ATOM Count: 37
#        Heavy ATOM Count: 18
@<TRIPOS>MOLECULE
ZINC61282005_1GCZ_R01_S0001_C0000_L00013_S0001_C0008_G0010_E0001
 37 37 0 0 0
SMALL
USER_CHARGES
@<TRIPOS>ATOM
       1 C1         0.3775    1.2572    0.6355 C.3       1 <0>        -0.1160 
       2 C2        -0.1014    0.6220    1.9189 C.ar      1 <0>        -0.0986 
       3 C3        -1.4629    0.3659    2.1197 C.ar      1 <0>        -0.0818 
       4 C4        -1.9091   -0.2212    3.3070 C.ar      1 <0>        -0.1283 
       5 C5        -0.9888   -0.5542    4.3080 C.ar      1 <0>        -0.0643 
       6 C6         0.3775   -0.3083    4.1272 C.ar      1 <0>        -0.1243 
       7 C7         0.8042    0.2765    2.9290 C.ar      1 <0>        -0.0546 
       8 C8         1.3466   -0.6641    5.1876 C.2       1 <0>         0.5131 
       9 O1         0.9648   -1.1636    6.2039 O.2       1 <0>        -0.5029 
      10 O2         2.6629   -0.4243    5.0068 O.3       1 <0>        -0.3246 
      11 C9         3.5612   -0.7852    6.0592 C.3       1 <0>         0.0501 
      12 C10        3.2397    0.0230    7.2934 C.2       1 <0>         0.5179 
      13 O3         2.8237   -0.5393    8.3051 O.2       1 <0>        -0.5155 
      14 N1         3.4060    1.3425    7.2873 N.am      1 <0>        -0.6088 
      15 C11        3.0926    2.1279    8.4897 C.3       1 <0>         0.0676 
      16 C12        3.9033    2.0146    6.0782 C.3       1 <0>         0.1305 
      17 C13        3.0672    3.2628    5.8109 C.3       1 <0>        -0.1630 
      18 C14        5.3623    2.4125    6.2820 C.3       1 <0>        -0.1617 
      19 H1         1.3903    0.9223    0.4217 H         1 <0>         0.0743 
      20 H2         0.3678    2.3399    0.7418 H         1 <0>         0.0707 
      21 H3        -0.2812    0.9663   -0.1801 H         1 <0>         0.0700 
      22 H4        -2.1895    0.6125    1.3597 H         1 <0>         0.1310 
      23 H5        -2.9612   -0.4146    3.4556 H         1 <0>         0.1343 
      24 H6        -1.3513   -1.0033    5.2208 H         1 <0>         0.1416 
      25 H7         1.8578    0.4606    2.7797 H         1 <0>         0.1381 
      26 H8         4.5842   -0.5816    5.7495 H         1 <0>         0.1010 
      27 H9         3.4532   -1.8447    6.2819 H         1 <0>         0.1011 
      28 H10        3.7225    1.7969    9.3128 H         1 <0>         0.0629 
      29 H11        3.2771    3.1817    8.2921 H         1 <0>         0.0807 
      30 H12        2.0466    1.9853    8.7527 H         1 <0>         0.0734 
      31 H13        3.8264    1.3374    5.2301 H         1 <0>         0.1038 
      32 H14        3.1548    3.9447    6.6543 H         1 <0>         0.0602 
      33 H15        3.4267    3.7530    4.9087 H         1 <0>         0.0720 
      34 H16        2.0251    2.9793    5.6797 H         1 <0>         0.0599 
      35 H17        5.9592    1.5205    6.4600 H         1 <0>         0.0713 
      36 H18        5.4395    3.0784    7.1390 H         1 <0>         0.0596 
      37 H19        5.7263    2.9218    5.3922 H         1 <0>         0.0594 
@<TRIPOS>BOND
       1        1        2 1        
       2        1       19 1        
       3        1       20 1        
       4        1       21 1        
       5        2        7 ar       
       6        2        3 ar       
       7        3        4 ar       
       8        3       22 1        
       9        4        5 ar       
      10        4       23 1        
      11        5        6 ar       
      12        5       24 1        
      13        6        7 ar       
      14        6        8 1        
      15        7       25 1        
      16        8        9 2        
      17        8       10 1        
      18       10       11 1        
      19       11       12 1        
      20       11       26 1        
      21       11       27 1        
      22       12       13 2        
      23       12       14 am       
      24       14       15 1        
      25       14       16 1        
      26       15       28 1        
      27       15       29 1        
      28       15       30 1        
      29       16       17 1        
      30       16       18 1        
      31       16       31 1        
      32       17       32 1        
      33       17       33 1        
      34       17       34 1        
      35       18       35 1        
      36       18       36 1        
      37       18       37 1        

