#        1GCZ_R01_S0001_C0000_L00013_S0001_C0009_G0010_E0001.mol2
#        Tue Jun  6 09:59:24 2017
#        Descriptor:     25    16    19     8     9    11
#        Energy - RMSD - RMSD MassCentre:     -65.8628    999.9999    999.9999
#        Receptor:       1  Surface Point:     1  Conformer:     0
#        Ligand:        13  Surface Point:     1  Conformer:     9
#        BUDE Formal Charge: 0
#        ATOM Count: 37
#        Heavy ATOM Count: 18
@<TRIPOS>MOLECULE
ZINC61282005_1GCZ_R01_S0001_C0000_L00013_S0001_C0009_G0010_E0001
 37 37 0 0 0
SMALL
USER_CHARGES
@<TRIPOS>ATOM
       1 C1         0.2639   -1.2977   -1.9921 C.3       1 <0>        -0.1160 
       2 C2        -0.0926   -0.1831   -1.0380 C.ar      1 <0>        -0.0986 
       3 C3        -0.0226    1.1532   -1.4488 C.ar      1 <0>        -0.0818 
       4 C4        -0.3512    2.1870   -0.5674 C.ar      1 <0>        -0.1283 
       5 C5        -0.7511    1.8866    0.7402 C.ar      1 <0>        -0.0643 
       6 C6        -0.8296    0.5570    1.1713 C.ar      1 <0>        -0.1243 
       7 C7        -0.5004   -0.4637    0.2716 C.ar      1 <0>        -0.0546 
       8 C8        -1.2550    0.2448    2.5540 C.2       1 <0>         0.5131 
       9 O1        -1.3206   -0.8917    2.9175 O.2       1 <0>        -0.5029 
      10 O2        -1.5692    1.2445    3.4052 O.3       1 <0>        -0.3246 
      11 C9        -1.9749    0.8940    4.7309 C.3       1 <0>         0.0501 
      12 C10       -0.8363    0.1978    5.4371 C.2       1 <0>         0.5179 
      13 O3        -0.9468   -0.9823    5.7657 O.2       1 <0>        -0.5155 
      14 N1         0.2859    0.8597    5.7042 N.am      1 <0>        -0.6088 
      15 C11        1.3934    0.1805    6.3918 C.3       1 <0>         0.0676 
      16 C12        0.4179    2.2702    5.3115 C.3       1 <0>         0.1305 
      17 C13        0.2474    3.1576    6.5411 C.3       1 <0>        -0.1630 
      18 C14        1.7985    2.5010    4.7041 C.3       1 <0>        -0.1617 
      19 H1        -0.3051   -2.1890   -1.7364 H         1 <0>         0.0743 
      20 H2         1.3279   -1.5121   -1.9171 H         1 <0>         0.0707 
      21 H3         0.0252   -0.9937   -3.0091 H         1 <0>         0.0700 
      22 H4         0.2811    1.4072   -2.4536 H         1 <0>         0.1310 
      23 H5        -0.2936    3.2157   -0.8910 H         1 <0>         0.1343 
      24 H6        -0.9974    2.6979    1.4091 H         1 <0>         0.1416 
      25 H7        -0.5676   -1.4918    0.5953 H         1 <0>         0.1381 
      26 H8        -2.8335    0.2274    4.6840 H         1 <0>         0.1010 
      27 H9        -2.2439    1.7948    5.2786 H         1 <0>         0.1011 
      28 H10        1.7322   -0.6601    5.7898 H         1 <0>         0.0629 
      29 H11        2.2146    0.8798    6.5340 H         1 <0>         0.0807 
      30 H12        1.0517   -0.1802    7.3597 H         1 <0>         0.0734 
      31 H13       -0.3474    2.5148    4.5779 H         1 <0>         0.1038 
      32 H14        1.0207    2.9206    7.2687 H         1 <0>         0.0602 
      33 H15        0.3318    4.2020    6.2483 H         1 <0>         0.0720 
      34 H16       -0.7319    2.9818    6.9814 H         1 <0>         0.0599 
      35 H17        1.9141    1.8770    3.8203 H         1 <0>         0.0713 
      36 H18        2.5630    2.2426    5.4338 H         1 <0>         0.0596 
      37 H19        1.9012    3.5478    4.4257 H         1 <0>         0.0594 
@<TRIPOS>BOND
       1        1        2 1        
       2        1       19 1        
       3        1       20 1        
       4        1       21 1        
       5        2        7 ar       
       6        2        3 ar       
       7        3        4 ar       
       8        3       22 1        
       9        4        5 ar       
      10        4       23 1        
      11        5        6 ar       
      12        5       24 1        
      13        6        7 ar       
      14        6        8 1        
      15        7       25 1        
      16        8        9 2        
      17        8       10 1        
      18       10       11 1        
      19       11       12 1        
      20       11       26 1        
      21       11       27 1        
      22       12       13 2        
      23       12       14 am       
      24       14       15 1        
      25       14       16 1        
      26       15       28 1        
      27       15       29 1        
      28       15       30 1        
      29       16       17 1        
      30       16       18 1        
      31       16       31 1        
      32       17       32 1        
      33       17       33 1        
      34       17       34 1        
      35       18       35 1        
      36       18       36 1        
      37       18       37 1        

