#        1GCZ_R01_S0001_C0000_L00013_S0001_C0009_G0010_E0001.mol2
#        Tue Jun  6 14:14:50 2017
#        Descriptor:     26    15    29     7     8    14
#        Energy - RMSD - RMSD MassCentre:     -52.9733    999.9999    999.9999
#        Receptor:       1  Surface Point:     1  Conformer:     0
#        Ligand:        13  Surface Point:     1  Conformer:     9
#        BUDE Formal Charge: 0
#        ATOM Count: 37
#        Heavy ATOM Count: 18
@<TRIPOS>MOLECULE
ZINC61282005_1GCZ_R01_S0001_C0000_L00013_S0001_C0009_G0010_E0001
 37 37 0 0 0
SMALL
USER_CHARGES
@<TRIPOS>ATOM
       1 C1         0.0726    1.3429    0.7735 C.3       1 <0>        -0.1160 
       2 C2        -0.7037    0.6195    1.8476 C.ar      1 <0>        -0.0986 
       3 C3        -2.0759    0.3869    1.6979 C.ar      1 <0>        -0.0818 
       4 C4        -2.7972   -0.2817    2.6910 C.ar      1 <0>        -0.1283 
       5 C5        -2.1447   -0.7211    3.8490 C.ar      1 <0>        -0.0643 
       6 C6        -0.7726   -0.5006    4.0185 C.ar      1 <0>        -0.1243 
       7 C7        -0.0678    0.1672    3.0100 C.ar      1 <0>        -0.0546 
       8 C8        -0.0872   -0.9691    5.2437 C.2       1 <0>         0.5131 
       9 O1         1.0841   -0.7786    5.3839 O.2       1 <0>        -0.5029 
      10 O2        -0.7858   -1.6122    6.2035 O.3       1 <0>        -0.3246 
      11 C9        -0.0806   -2.0462    7.3693 C.3       1 <0>         0.0501 
      12 C10        0.4672   -0.8447    8.1015 C.2       1 <0>         0.5179 
      13 O3         1.6831   -0.6827    8.1932 O.2       1 <0>        -0.5155 
      14 N1        -0.3639    0.0385    8.6473 N.am      1 <0>        -0.6088 
      15 C11        0.1711    1.2077    9.3597 C.3       1 <0>         0.0676 
      16 C12       -1.8170   -0.1551    8.5377 C.3       1 <0>         0.1305 
      17 C13       -2.3624   -0.6695    9.8667 C.3       1 <0>        -0.1630 
      18 C14       -2.4819    1.1747    8.1944 C.3       1 <0>        -0.1617 
      19 H1         1.1043    0.9976    0.7777 H         1 <0>         0.0743 
      20 H2         0.0471    2.4132    0.9669 H         1 <0>         0.0707 
      21 H3        -0.3752    1.1381   -0.1967 H         1 <0>         0.0700 
      22 H4        -2.5984    0.7153    0.8115 H         1 <0>         0.1310 
      23 H5        -3.8559   -0.4563    2.5691 H         1 <0>         0.1343 
      24 H6        -2.7181   -1.2325    4.6080 H         1 <0>         0.1416 
      25 H7         0.9926    0.3325    3.1307 H         1 <0>         0.1381 
      26 H8         0.7406   -2.6970    7.0761 H         1 <0>         0.1010 
      27 H9        -0.7594   -2.5900    8.0230 H         1 <0>         0.1011 
      28 H10        0.7651    1.8087    8.6744 H         1 <0>         0.0629 
      29 H11       -0.6526    1.8045    9.7458 H         1 <0>         0.0807 
      30 H12        0.7960    0.8738   10.1853 H         1 <0>         0.0734 
      31 H13       -2.0275   -0.8796    7.7538 H         1 <0>         0.1038 
      32 H14       -2.1623    0.0615   10.6474 H         1 <0>         0.0602 
      33 H15       -3.4356   -0.8254    9.7816 H         1 <0>         0.0720 
      34 H16       -1.8773   -1.6105   10.1172 H         1 <0>         0.0599 
      35 H17       -2.1015    1.5341    7.2406 H         1 <0>         0.0713 
      36 H18       -2.2590    1.9023    8.9720 H         1 <0>         0.0596 
      37 H19       -3.5587    1.0342    8.1264 H         1 <0>         0.0594 
@<TRIPOS>BOND
       1        1        2 1        
       2        1       19 1        
       3        1       20 1        
       4        1       21 1        
       5        2        7 ar       
       6        2        3 ar       
       7        3        4 ar       
       8        3       22 1        
       9        4        5 ar       
      10        4       23 1        
      11        5        6 ar       
      12        5       24 1        
      13        6        7 ar       
      14        6        8 1        
      15        7       25 1        
      16        8        9 2        
      17        8       10 1        
      18       10       11 1        
      19       11       12 1        
      20       11       26 1        
      21       11       27 1        
      22       12       13 2        
      23       12       14 am       
      24       14       15 1        
      25       14       16 1        
      26       15       28 1        
      27       15       29 1        
      28       15       30 1        
      29       16       17 1        
      30       16       18 1        
      31       16       31 1        
      32       17       32 1        
      33       17       33 1        
      34       17       34 1        
      35       18       35 1        
      36       18       36 1        
      37       18       37 1        

