#        1GCZ_R01_S0001_C0000_L00003_S0001_C0023_G0010_E0001.mol2
#        Tue Jun  6 09:54:55 2017
#        Descriptor:      7     4    36    15     6    13
#        Energy - RMSD - RMSD MassCentre:     -52.6647    999.9999    999.9999
#        Receptor:       1  Surface Point:     1  Conformer:     0
#        Ligand:         3  Surface Point:     1  Conformer:    23
#        BUDE Formal Charge: 0
#        ATOM Count: 58
#        Heavy ATOM Count: 30
@<TRIPOS>MOLECULE
ZINC61580633_1GCZ_R01_S0001_C0000_L00003_S0001_C0023_G0010_E0001
 58 59 0 0 0
SMALL
USER_CHARGES
@<TRIPOS>ATOM
       1 C1         2.3521   -7.5044    7.2398 C.3       1 <0>        -0.1532 
       2 C2         1.8968   -7.0986    5.8410 C.3       1 <0>        -0.1224 
       3 C3         2.5681   -5.7829    5.4495 C.3       1 <0>        -0.1198 
       4 C4         2.1619   -4.6910    6.4382 C.3       1 <0>         0.0610 
       5 O1         2.7901   -3.4598    6.0718 O.3       1 <0>        -0.3878 
       6 C5         2.4456   -2.3973    6.9648 C.3       1 <0>         0.0487 
       7 C6         3.1456   -1.1135    6.5216 C.3       1 <0>         0.1244 
       8 N1         4.5832   -1.2152    6.8109 N.am      1 <0>        -0.7216 
       9 C7         5.3951   -0.2066    6.5073 C.2       1 <0>         0.5161 
      10 O2         4.9441    0.8112    5.9846 O.2       1 <0>        -0.5151 
      11 C8         6.8720   -0.3111    6.8046 C.3       1 <0>         0.0490 
      12 O3         7.4666   -1.2729    5.9293 O.3       1 <0>        -0.3194 
      13 C9         7.0511   -2.5542    6.0205 C.2       1 <0>         0.5417 
      14 O4         6.1932   -2.8618    6.8316 O.2       1 <0>        -0.5337 
      15 C10        7.6367   -3.5861    5.1361 C.2       1 <0>        -0.2559 
      16 C11        7.2647   -5.0184    5.1616 C.2       1 <0>        -0.0791 
      17 C12        7.9513   -5.7382    4.2713 C.2       1 <0>        -0.2585 
      18 S1         9.0879   -4.7589    3.3325 S.3       1 <0>         0.3028 
      19 C13        8.5812   -3.3167    4.2246 C.2       1 <0>         0.0893 
      20 N2         9.0799   -2.0538    4.0421 N.am      1 <0>        -0.6099 
      21 C14       10.0175   -1.8342    3.1248 C.2       1 <0>         0.5551 
      22 O5        10.4372   -2.7655    2.4397 O.2       1 <0>        -0.4939 
      23 C15       10.5551   -0.4693    2.9289 C.ar      1 <0>        -0.1466 
      24 C16       11.5432   -0.2838    1.9545 C.ar      1 <0>        -0.0772 
      25 C17       12.1424    0.9683    1.7735 C.ar      1 <0>        -0.1241 
      26 C18       11.7715    2.0570    2.5714 C.ar      1 <0>        -0.0446 
      27 C19       10.7466    1.8877    3.5099 C.ar      1 <0>        -0.1261 
      28 C20       10.1295    0.6410    3.6678 C.ar      1 <0>        -0.0460 
      29 C21       12.4734    3.3833    2.4027 C.3       1 <0>        -0.0928 
      30 C22       13.6795    3.4417    3.3356 C.3       1 <0>        -0.1485 
      31 H1         2.0619   -6.7351    7.9523 H         1 <0>         0.0567 
      32 H2         3.4340   -7.6188    7.2493 H         1 <0>         0.0554 
      33 H3         1.8846   -8.4479    7.5132 H         1 <0>         0.0557 
      34 H4         2.1755   -7.8731    5.1293 H         1 <0>         0.0632 
      35 H5         0.8165   -6.9701    5.8335 H         1 <0>         0.0635 
      36 H6         3.6488   -5.9063    5.4701 H         1 <0>         0.0711 
      37 H7         2.2539   -5.4990    4.4473 H         1 <0>         0.0704 
      38 H8         1.0814   -4.5662    6.4179 H         1 <0>         0.0498 
      39 H9         2.4764   -4.9736    7.4407 H         1 <0>         0.0505 
      40 H10        2.7632   -2.6530    7.9736 H         1 <0>         0.0584 
      41 H11        1.3683   -2.2456    6.9506 H         1 <0>         0.0702 
      42 H12        2.7268   -0.2665    7.0610 H         1 <0>         0.0872 
      43 H13        3.0007   -0.9712    5.4527 H         1 <0>         0.0805 
      44 H14        4.9547   -2.0506    7.2402 H         1 <0>         0.4058 
      45 H15        7.3429    0.6577    6.6514 H         1 <0>         0.1008 
      46 H16        7.0134   -0.6247    7.8367 H         1 <0>         0.0999 
      47 H17        6.5105   -5.4129    5.8263 H         1 <0>         0.1557 
      48 H18        7.8068   -6.8005    4.1412 H         1 <0>         0.1929 
      49 H19        8.7353   -1.2890    4.6046 H         1 <0>         0.4317 
      50 H20       11.8513   -1.1151    1.3378 H         1 <0>         0.1287 
      51 H21       12.8992    1.1009    1.0145 H         1 <0>         0.1326 
      52 H22       10.4366    2.7326    4.1069 H         1 <0>         0.1342 
      53 H23        9.3060    0.5853    4.3642 H         1 <0>         0.1410 
      54 H24       11.7858    4.1904    2.6469 H         1 <0>         0.0777 
      55 H25       12.8057    3.4886    1.3721 H         1 <0>         0.0771 
      56 H26       14.3722    2.6419    3.0823 H         1 <0>         0.0623 
      57 H27       13.3474    3.3222    4.3648 H         1 <0>         0.0572 
      58 H28       14.1774    4.4026    3.2238 H         1 <0>         0.0578 
@<TRIPOS>BOND
       1        1        2 1        
       2        1       31 1        
       3        1       32 1        
       4        1       33 1        
       5        2        3 1        
       6        2       34 1        
       7        2       35 1        
       8        3        4 1        
       9        3       36 1        
      10        3       37 1        
      11        4        5 1        
      12        4       38 1        
      13        4       39 1        
      14        5        6 1        
      15        6        7 1        
      16        6       40 1        
      17        6       41 1        
      18        7        8 1        
      19        7       42 1        
      20        7       43 1        
      21        8        9 am       
      22        8       44 1        
      23        9       10 2        
      24        9       11 1        
      25       11       12 1        
      26       11       45 1        
      27       11       46 1        
      28       12       13 1        
      29       13       14 2        
      30       13       15 1        
      31       15       19 2        
      32       15       16 1        
      33       16       17 2        
      34       16       47 1        
      35       17       18 1        
      36       17       48 1        
      37       18       19 1        
      38       19       20 1        
      39       20       21 am       
      40       20       49 1        
      41       21       22 2        
      42       21       23 1        
      43       23       28 ar       
      44       23       24 ar       
      45       24       25 ar       
      46       24       50 1        
      47       25       26 ar       
      48       25       51 1        
      49       26       27 ar       
      50       26       29 1        
      51       27       28 ar       
      52       27       52 1        
      53       28       53 1        
      54       29       30 1        
      55       29       54 1        
      56       29       55 1        
      57       30       56 1        
      58       30       57 1        
      59       30       58 1        

