#        1GCZ_R01_S0001_C0000_L00014_S0001_C0000_G0010_E0001.mol2
#        Tue Jun  6 09:59:25 2017
#        Descriptor:     10    20    10     7     8    13
#        Energy - RMSD - RMSD MassCentre:     -74.4661    999.9999    999.9999
#        Receptor:       1  Surface Point:     1  Conformer:     0
#        Ligand:        14  Surface Point:     1  Conformer:     0
#        BUDE Formal Charge: 0
#        ATOM Count: 42
#        Heavy ATOM Count: 22
@<TRIPOS>MOLECULE
ZINC61597528_1GCZ_R01_S0001_C0000_L00014_S0001_C0000_G0010_E0001
 42 43 0 0 0
SMALL
USER_CHARGES
@<TRIPOS>ATOM
       1 C1         0.4724   -0.8536   -3.3054 C.3       1 <0>         0.0268 
       2 O1         0.3070   -1.3895   -1.9910 O.3       1 <0>        -0.3133 
       3 C2         0.0475   -0.5051   -0.9924 C.ar      1 <0>         0.1677 
       4 C3        -0.0517    0.8505   -1.2734 C.ar      1 <0>        -0.2433 
       5 C4        -0.3155    1.7501   -0.2586 C.ar      1 <0>        -0.0391 
       6 C5        -0.4808    1.3029    1.0385 C.ar      1 <0>        -0.2473 
       7 C6        -0.3826   -0.0512    1.3246 C.ar      1 <0>         0.1672 
       8 C7        -0.1240   -0.9567    0.3069 C.ar      1 <0>        -0.1836 
       9 O2        -0.5451   -0.4903    2.6004 O.3       1 <0>        -0.2863 
      10 C8        -0.8149    0.4976    3.5970 C.3       1 <0>         0.0425 
      11 C9        -0.9639   -0.1708    4.9394 C.2       1 <0>         0.5165 
      12 O3        -0.8502   -1.3746    5.0334 O.2       1 <0>        -0.5075 
      13 N1        -1.2234    0.5692    6.0357 N.am      1 <0>        -0.7277 
      14 C10       -1.3682   -0.0806    7.3407 C.3       1 <0>         0.0923 
      15 C11       -1.6571    0.9771    8.4078 C.3       1 <0>         0.1538 
      16 N2        -1.8019    0.3273    9.7128 N.pl3     1 <0>        -0.9868 
      17 C12       -3.0210   -0.2869   10.2687 C.3       1 <0>         0.0701 
      18 C13       -2.6657   -1.4338   11.2332 C.3       1 <0>        -0.1323 
      19 C14       -1.5233   -0.8687   12.1300 C.3       1 <0>        -0.5903 
      20 S1        -0.6132    0.1234   10.8770 S.o2      1 <0>         2.5602 
      21 O4         0.3986   -0.6558   10.2539 O.2       1 <0>        -0.9507 
      22 O5        -0.3392    1.4269   11.3720 O.2       1 <0>        -0.9534 
      23 H1         0.6741   -1.6642   -4.0056 H         1 <0>         0.1028 
      24 H2        -0.4386   -0.3344   -3.6034 H         1 <0>         0.0577 
      25 H3         1.3077   -0.1533   -3.3099 H         1 <0>         0.0578 
      26 H4         0.0778    1.2024   -2.2863 H         1 <0>         0.1309 
      27 H5        -0.3922    2.8045   -0.4793 H         1 <0>         0.1300 
      28 H6        -0.6862    2.0082    1.8303 H         1 <0>         0.1298 
      29 H7        -0.0516   -2.0115    0.5268 H         1 <0>         0.1413 
      30 H8         0.0094    1.2097    3.6352 H         1 <0>         0.0972 
      31 H9        -1.7372    1.0224    3.3481 H         1 <0>         0.0968 
      32 H10       -1.3143    1.5320    5.9604 H         1 <0>         0.4034 
      33 H11       -2.1926   -0.7928    7.3024 H         1 <0>         0.0764 
      34 H12       -0.4458   -0.6054    7.5895 H         1 <0>         0.0833 
      35 H13       -0.8327    1.6892    8.4459 H         1 <0>         0.0878 
      36 H14       -2.5794    1.5019    8.1589 H         1 <0>         0.0899 
      37 H15       -3.5910    0.4706   10.8068 H         1 <0>         0.0810 
      38 H16       -3.6289   -0.6791    9.4535 H         1 <0>         0.0967 
      39 H17       -3.5301   -1.6977   11.8425 H         1 <0>         0.1151 
      40 H18       -2.3151   -2.3024   10.6758 H         1 <0>         0.0972 
      41 H19       -1.9189   -0.2406   12.9283 H         1 <0>         0.1443 
      42 H20       -0.8995   -1.6682   12.5294 H         1 <0>         0.1447 
@<TRIPOS>BOND
       1        1        2 1        
       2        1       23 1        
       3        1       24 1        
       4        1       25 1        
       5        2        3 1        
       6        3        8 ar       
       7        3        4 ar       
       8        4        5 ar       
       9        4       26 1        
      10        5        6 ar       
      11        5       27 1        
      12        6        7 ar       
      13        6       28 1        
      14        7        8 ar       
      15        7        9 1        
      16        8       29 1        
      17        9       10 1        
      18       10       11 1        
      19       10       30 1        
      20       10       31 1        
      21       11       12 2        
      22       11       13 am       
      23       13       14 1        
      24       13       32 1        
      25       14       15 1        
      26       14       33 1        
      27       14       34 1        
      28       15       16 1        
      29       15       35 1        
      30       15       36 1        
      31       16       20 1        
      32       16       17 1        
      33       17       18 1        
      34       17       37 1        
      35       17       38 1        
      36       18       19 1        
      37       18       39 1        
      38       18       40 1        
      39       19       20 1        
      40       19       41 1        
      41       19       42 1        
      42       20       21 2        
      43       20       22 2        

