#        1GCZ_R01_S0001_C0000_L00014_S0001_C0000_G0010_E0001.mol2
#        Tue Jun  6 14:14:51 2017
#        Descriptor:      8    21    12     9     8    14
#        Energy - RMSD - RMSD MassCentre:     -59.0325    999.9999    999.9999
#        Receptor:       1  Surface Point:     1  Conformer:     0
#        Ligand:        14  Surface Point:     1  Conformer:     0
#        BUDE Formal Charge: 0
#        ATOM Count: 42
#        Heavy ATOM Count: 22
@<TRIPOS>MOLECULE
ZINC61597528_1GCZ_R01_S0001_C0000_L00014_S0001_C0000_G0010_E0001
 42 43 0 0 0
SMALL
USER_CHARGES
@<TRIPOS>ATOM
       1 C1        -0.3218   -0.3461   -2.3672 C.3       1 <0>         0.0268 
       2 O1         0.2469   -0.8504   -1.1570 O.3       1 <0>        -0.3133 
       3 C2        -0.0160   -0.1591   -0.0170 C.ar      1 <0>         0.1677 
       4 C3        -0.8103    0.9783   -0.0617 C.ar      1 <0>        -0.2433 
       5 C4        -1.0778    1.6814    1.0970 C.ar      1 <0>        -0.0391 
       6 C5        -0.5554    1.2547    2.3031 C.ar      1 <0>        -0.2473 
       7 C6         0.2391    0.1183    2.3532 C.ar      1 <0>         0.1672 
       8 C7         0.5041   -0.5926    1.1926 C.ar      1 <0>        -0.1836 
       9 O2         0.7527   -0.3008    3.5395 O.3       1 <0>        -0.2863 
      10 C8         0.4338    0.4768    4.6953 C.3       1 <0>         0.0425 
      11 C9         1.0858   -0.1355    5.9082 C.2       1 <0>         0.5165 
      12 O3         1.7574   -1.1389    5.7941 O.2       1 <0>        -0.5075 
      13 N1         0.9226    0.4320    7.1198 N.am      1 <0>        -0.7277 
      14 C10        1.5564   -0.1633    8.2988 C.3       1 <0>         0.0923 
      15 C11        1.2149    0.6692    9.5363 C.3       1 <0>         0.1538 
      16 N2         1.8488    0.0739   10.7154 N.pl3     1 <0>        -0.9868 
      17 C12        1.3232   -1.0233   11.5475 C.3       1 <0>         0.0701 
      18 C13        2.4726   -1.8322   12.1772 C.3       1 <0>        -0.1323 
      19 C14        3.4674   -0.7637   12.7226 C.3       1 <0>        -0.5903 
      20 S1         3.3238    0.4961   11.3905 S.o2      1 <0>         2.5602 
      21 O4         4.2873    0.2658   10.3718 O.2       1 <0>        -0.9507 
      22 O5         3.1314    1.7909   11.9435 O.2       1 <0>        -0.9534 
      23 H1        -0.0350   -0.9893   -3.1991 H         1 <0>         0.1028 
      24 H2        -1.4081   -0.3293   -2.2788 H         1 <0>         0.0577 
      25 H3         0.0438    0.6650   -2.5467 H         1 <0>         0.0578 
      26 H4        -1.2191    1.3141   -1.0033 H         1 <0>         0.1309 
      27 H5        -1.6960    2.5663    1.0600 H         1 <0>         0.1300 
      28 H6        -0.7654    1.8065    3.2075 H         1 <0>         0.1298 
      29 H7         1.1186   -1.4799    1.2302 H         1 <0>         0.1413 
      30 H8         0.7999    1.4946    4.5609 H         1 <0>         0.0972 
      31 H9        -0.6472    0.4949    4.8341 H         1 <0>         0.0968 
      32 H10        0.3853    1.2345    7.2110 H         1 <0>         0.4034 
      33 H11        1.1902   -1.1812    8.4332 H         1 <0>         0.0764 
      34 H12        2.6373   -0.1813    8.1600 H         1 <0>         0.0833 
      35 H13        1.5811    1.6870    9.4018 H         1 <0>         0.0878 
      36 H14        0.1340    0.6873    9.6751 H         1 <0>         0.0899 
      37 H15        0.7018   -0.6065   12.3401 H         1 <0>         0.0810 
      38 H16        0.7166   -1.6843   10.9284 H         1 <0>         0.0967 
      39 H17        2.0977   -2.4515   12.9921 H         1 <0>         0.1151 
      40 H18        2.9579   -2.4512   11.4225 H         1 <0>         0.0972 
      41 H19        3.1388   -0.3695   13.6843 H         1 <0>         0.1443 
      42 H20        4.4811   -1.1596   12.7840 H         1 <0>         0.1447 
@<TRIPOS>BOND
       1        1        2 1        
       2        1       23 1        
       3        1       24 1        
       4        1       25 1        
       5        2        3 1        
       6        3        8 ar       
       7        3        4 ar       
       8        4        5 ar       
       9        4       26 1        
      10        5        6 ar       
      11        5       27 1        
      12        6        7 ar       
      13        6       28 1        
      14        7        8 ar       
      15        7        9 1        
      16        8       29 1        
      17        9       10 1        
      18       10       11 1        
      19       10       30 1        
      20       10       31 1        
      21       11       12 2        
      22       11       13 am       
      23       13       14 1        
      24       13       32 1        
      25       14       15 1        
      26       14       33 1        
      27       14       34 1        
      28       15       16 1        
      29       15       35 1        
      30       15       36 1        
      31       16       20 1        
      32       16       17 1        
      33       17       18 1        
      34       17       37 1        
      35       17       38 1        
      36       18       19 1        
      37       18       39 1        
      38       18       40 1        
      39       19       20 1        
      40       19       41 1        
      41       19       42 1        
      42       20       21 2        
      43       20       22 2        

