#        1GCZ_R01_S0001_C0000_L00014_S0001_C0001_G0010_E0001.mol2
#        Tue Jun  6 09:59:26 2017
#        Descriptor:     25     5    36    10     8    11
#        Energy - RMSD - RMSD MassCentre:     -56.2303    999.9999    999.9999
#        Receptor:       1  Surface Point:     1  Conformer:     0
#        Ligand:        14  Surface Point:     1  Conformer:     1
#        BUDE Formal Charge: 0
#        ATOM Count: 42
#        Heavy ATOM Count: 22
@<TRIPOS>MOLECULE
ZINC61597528_1GCZ_R01_S0001_C0000_L00014_S0001_C0001_G0010_E0001
 42 43 0 0 0
SMALL
USER_CHARGES
@<TRIPOS>ATOM
       1 C1         2.5745   -1.0079   -1.9444 C.3       1 <0>         0.0268 
       2 O1         1.1969   -0.7637   -2.2401 O.3       1 <0>        -0.3133 
       3 C2         0.3659   -0.4323   -1.2026 C.ar      1 <0>         0.1677 
       4 C3        -0.5882    0.5654   -1.4345 C.ar      1 <0>        -0.2433 
       5 C4        -1.4851    0.9661   -0.4402 C.ar      1 <0>        -0.0391 
       6 C5        -1.4284    0.3647    0.8227 C.ar      1 <0>        -0.2473 
       7 C6        -0.4670   -0.6216    1.0734 C.ar      1 <0>         0.1672 
       8 C7         0.4132   -1.0277    0.0634 C.ar      1 <0>        -0.1836 
       9 O2        -0.3863   -1.1929    2.3161 O.3       1 <0>        -0.2863 
      10 C8        -0.5410   -0.3435    3.4560 C.3       1 <0>         0.0425 
      11 C9         0.5437    0.7069    3.4509 C.2       1 <0>         0.5165 
      12 O3         0.2609    1.8831    3.2289 O.2       1 <0>        -0.5075 
      13 N1         1.8060    0.3599    3.6863 N.am      1 <0>        -0.7277 
      14 C10        2.8620    1.3826    3.6812 C.3       1 <0>         0.0923 
      15 C11        4.2087    0.7241    3.9768 C.3       1 <0>         0.1538 
      16 N2         4.2200    0.2342    5.3627 N.pl3     1 <0>        -0.9868 
      17 C12        4.4405    1.1152    6.5186 C.3       1 <0>         0.0701 
      18 C13        3.9983    0.2463    7.7107 C.3       1 <0>        -0.1323 
      19 C14        4.4722   -1.1882    7.4114 C.3       1 <0>        -0.5903 
      20 S1         3.9411   -1.4339    5.6986 S.o2      1 <0>         2.5602 
      21 O4         2.5348   -1.6873    5.6439 O.2       1 <0>        -0.9507 
      22 O5         4.8855   -2.2423    4.9917 O.2       1 <0>        -0.9534 
      23 H1         2.6535   -1.8447   -1.2534 H         1 <0>         0.1028 
      24 H2         3.1057   -1.2446   -2.8638 H         1 <0>         0.0577 
      25 H3         3.0104   -0.1201   -1.4912 H         1 <0>         0.0578 
      26 H4        -0.6279    1.0352   -2.4061 H         1 <0>         0.1309 
      27 H5        -2.2153    1.7354   -0.6436 H         1 <0>         0.1300 
      28 H6        -2.1194    0.6568    1.5996 H         1 <0>         0.1298 
      29 H7         1.1115   -1.8096    0.3233 H         1 <0>         0.1413 
      30 H8        -0.4655   -0.9374    4.3645 H         1 <0>         0.0972 
      31 H9        -1.5144    0.1411    3.4185 H         1 <0>         0.0968 
      32 H10        2.0394   -0.6056    3.8686 H         1 <0>         0.4034 
      33 H11        2.6487    2.1288    4.4437 H         1 <0>         0.0764 
      34 H12        2.8996    1.8612    2.7048 H         1 <0>         0.0833 
      35 H13        5.0060    1.4524    3.8438 H         1 <0>         0.0878 
      36 H14        4.3620   -0.1109    3.2964 H         1 <0>         0.0899 
      37 H15        5.5027    1.3446    6.5712 H         1 <0>         0.0810 
      38 H16        3.8714    2.0408    6.4628 H         1 <0>         0.0967 
      39 H17        2.9120    0.2469    7.7681 H         1 <0>         0.1151 
      40 H18        4.3992    0.6174    8.6516 H         1 <0>         0.0972 
      41 H19        5.5578   -1.2506    7.4487 H         1 <0>         0.1443 
      42 H20        4.0360   -1.9430    8.0623 H         1 <0>         0.1447 
@<TRIPOS>BOND
       1        1        2 1        
       2        1       23 1        
       3        1       24 1        
       4        1       25 1        
       5        2        3 1        
       6        3        8 ar       
       7        3        4 ar       
       8        4        5 ar       
       9        4       26 1        
      10        5        6 ar       
      11        5       27 1        
      12        6        7 ar       
      13        6       28 1        
      14        7        8 ar       
      15        7        9 1        
      16        8       29 1        
      17        9       10 1        
      18       10       11 1        
      19       10       30 1        
      20       10       31 1        
      21       11       12 2        
      22       11       13 am       
      23       13       14 1        
      24       13       32 1        
      25       14       15 1        
      26       14       33 1        
      27       14       34 1        
      28       15       16 1        
      29       15       35 1        
      30       15       36 1        
      31       16       20 1        
      32       16       17 1        
      33       17       18 1        
      34       17       37 1        
      35       17       38 1        
      36       18       19 1        
      37       18       39 1        
      38       18       40 1        
      39       19       20 1        
      40       19       41 1        
      41       19       42 1        
      42       20       21 2        
      43       20       22 2        

