#        1GCZ_R01_S0001_C0000_L00014_S0001_C0001_G0010_E0001.mol2
#        Tue Jun  6 14:14:53 2017
#        Descriptor:     20    27    35     7     8    12
#        Energy - RMSD - RMSD MassCentre:     -54.5487    999.9999    999.9999
#        Receptor:       1  Surface Point:     1  Conformer:     0
#        Ligand:        14  Surface Point:     1  Conformer:     1
#        BUDE Formal Charge: 0
#        ATOM Count: 42
#        Heavy ATOM Count: 22
@<TRIPOS>MOLECULE
ZINC61597528_1GCZ_R01_S0001_C0000_L00014_S0001_C0001_G0010_E0001
 42 43 0 0 0
SMALL
USER_CHARGES
@<TRIPOS>ATOM
       1 C1        -3.1239   -3.0979    7.4183 C.3       1 <0>         0.0268 
       2 O1        -2.6181   -2.3546    8.5304 O.3       1 <0>        -0.3133 
       3 C2        -1.8326   -1.2629    8.2698 C.ar      1 <0>         0.1677 
       4 C3        -2.0282   -0.1246    9.0607 C.ar      1 <0>        -0.2433 
       5 C4        -1.2698    1.0347    8.8755 C.ar      1 <0>        -0.0391 
       6 C5        -0.2947    1.0679    7.8716 C.ar      1 <0>        -0.2473 
       7 C6        -0.1014   -0.0574    7.0616 C.ar      1 <0>         0.1672 
       8 C7        -0.8542   -1.2193    7.2695 C.ar      1 <0>        -0.1836 
       9 O2         0.8304   -0.0213    6.0578 O.3       1 <0>        -0.2863 
      10 C8         0.9365    1.1765    5.2840 C.3       1 <0>         0.0425 
      11 C9        -0.3778    1.4449    4.5907 C.2       1 <0>         0.5165 
      12 O3        -1.0772    2.3935    4.9425 O.2       1 <0>        -0.5075 
      13 N1        -0.7796    0.6548    3.5990 N.am      1 <0>        -0.7277 
      14 C10       -2.0591    0.9161    2.9241 C.3       1 <0>         0.0923 
      15 C11       -2.2806   -0.1293    1.8320 C.3       1 <0>         0.1538 
      16 N2        -1.2899    0.0625    0.7631 N.pl3     1 <0>        -0.9868 
      17 C12       -1.4164    1.1063   -0.2641 C.3       1 <0>         0.0701 
      18 C13       -0.0114    1.1510   -0.8931 C.3       1 <0>        -0.1323 
      19 C14        0.4852   -0.3048   -0.9684 C.3       1 <0>        -0.5903 
      20 S1         0.1114   -0.9392    0.6850 S.o2      1 <0>         2.5602 
      21 O4         1.0726   -0.4635    1.6309 O.2       1 <0>        -0.9507 
      22 O5        -0.2713   -2.3156    0.6195 O.2       1 <0>        -0.9534 
      23 H1        -2.2922   -3.4923    6.8382 H         1 <0>         0.1028 
      24 H2        -3.7362   -3.9207    7.7812 H         1 <0>         0.0577 
      25 H3        -3.7272   -2.4452    6.7910 H         1 <0>         0.0578 
      26 H4        -2.7853   -0.1467    9.8305 H         1 <0>         0.1309 
      27 H5        -1.4359    1.8996    9.5007 H         1 <0>         0.1300 
      28 H6         0.3056    1.9530    7.7207 H         1 <0>         0.1298 
      29 H7        -0.6334   -2.0547    6.6216 H         1 <0>         0.1413 
      30 H8         1.7213    1.0598    4.5395 H         1 <0>         0.0972 
      31 H9         1.1777    2.0115    5.9384 H         1 <0>         0.0968 
      32 H10       -0.2061   -0.1244    3.3093 H         1 <0>         0.4034 
      33 H11       -2.0382    1.9078    2.4771 H         1 <0>         0.0764 
      34 H12       -2.8696    0.8608    3.6479 H         1 <0>         0.0833 
      35 H13       -3.2821   -0.0190    1.4214 H         1 <0>         0.0878 
      36 H14       -2.1689   -1.1256    2.2547 H         1 <0>         0.0899 
      37 H15       -2.1613    0.7808   -0.9872 H         1 <0>         0.0810 
      38 H16       -1.7049    2.0726    0.1444 H         1 <0>         0.0967 
      39 H17        0.6540    1.7101   -0.2388 H         1 <0>         0.1151 
      40 H18       -0.0219    1.6267   -1.8716 H         1 <0>         0.0972 
      41 H19       -0.0934   -0.8718   -1.6948 H         1 <0>         0.1443 
      42 H20        1.5469   -0.3993   -1.1867 H         1 <0>         0.1447 
@<TRIPOS>BOND
       1        1        2 1        
       2        1       23 1        
       3        1       24 1        
       4        1       25 1        
       5        2        3 1        
       6        3        8 ar       
       7        3        4 ar       
       8        4        5 ar       
       9        4       26 1        
      10        5        6 ar       
      11        5       27 1        
      12        6        7 ar       
      13        6       28 1        
      14        7        8 ar       
      15        7        9 1        
      16        8       29 1        
      17        9       10 1        
      18       10       11 1        
      19       10       30 1        
      20       10       31 1        
      21       11       12 2        
      22       11       13 am       
      23       13       14 1        
      24       13       32 1        
      25       14       15 1        
      26       14       33 1        
      27       14       34 1        
      28       15       16 1        
      29       15       35 1        
      30       15       36 1        
      31       16       20 1        
      32       16       17 1        
      33       17       18 1        
      34       17       37 1        
      35       17       38 1        
      36       18       19 1        
      37       18       39 1        
      38       18       40 1        
      39       19       20 1        
      40       19       41 1        
      41       19       42 1        
      42       20       21 2        
      43       20       22 2        

