#        1GCZ_R01_S0001_C0000_L00014_S0001_C0002_G0010_E0001.mol2
#        Tue Jun  6 09:59:27 2017
#        Descriptor:      9    17    33     8    11    14
#        Energy - RMSD - RMSD MassCentre:     -50.8129    999.9999    999.9999
#        Receptor:       1  Surface Point:     1  Conformer:     0
#        Ligand:        14  Surface Point:     1  Conformer:     2
#        BUDE Formal Charge: 0
#        ATOM Count: 42
#        Heavy ATOM Count: 22
@<TRIPOS>MOLECULE
ZINC61597528_1GCZ_R01_S0001_C0000_L00014_S0001_C0002_G0010_E0001
 42 43 0 0 0
SMALL
USER_CHARGES
@<TRIPOS>ATOM
       1 C1        -0.6810    1.1518    0.2661 C.3       1 <0>         0.0268 
       2 O1        -1.5874    1.1626    1.3722 O.3       1 <0>        -0.3133 
       3 C2        -1.1829    0.5717    2.5401 C.ar      1 <0>         0.1677 
       4 C3        -2.1294   -0.1853    3.2408 C.ar      1 <0>        -0.2433 
       5 C4        -1.8088   -0.8321    4.4376 C.ar      1 <0>        -0.0391 
       6 C5        -0.5141   -0.7183    4.9577 C.ar      1 <0>        -0.2473 
       7 C6         0.4368    0.0507    4.2765 C.ar      1 <0>         0.1672 
       8 C7         0.1090    0.6781    3.0687 C.ar      1 <0>        -0.1836 
       9 O2         1.6970    0.1909    4.7954 O.3       1 <0>        -0.2863 
      10 C8         1.8239    0.3743    6.2079 C.3       1 <0>         0.0425 
      11 C9         1.1030    1.6362    6.6175 C.2       1 <0>         0.5165 
      12 O3         0.0682    1.5671    7.2787 O.2       1 <0>        -0.5075 
      13 N1         1.5872    2.8231    6.2630 N.am      1 <0>        -0.7277 
      14 C10        0.8852    4.0516    6.6618 C.3       1 <0>         0.0923 
      15 C11        1.0209    4.2476    8.1711 C.3       1 <0>         0.1538 
      16 N2         0.3190    5.4760    8.5699 N.pl3     1 <0>        -0.9868 
      17 C12       -1.0518    5.4752    9.1006 C.3       1 <0>         0.0701 
      18 C13       -1.4437    6.9640    9.0611 C.3       1 <0>        -0.1323 
      19 C14       -0.1898    7.7616    9.4650 C.3       1 <0>        -0.5903 
      20 S1         1.1064    7.0058    8.4528 S.o2      1 <0>         2.5602 
      21 O4         2.3446    6.9775    9.1676 O.2       1 <0>        -0.9507 
      22 O5         1.0209    7.4671    7.1019 O.2       1 <0>        -0.9534 
      23 H1        -0.4599    0.1231   -0.0106 H         1 <0>         0.1028 
      24 H2        -1.1346    1.6659   -0.5785 H         1 <0>         0.0577 
      25 H3         0.2398    1.6582    0.5478 H         1 <0>         0.0578 
      26 H4        -3.1305   -0.2675    2.8442 H         1 <0>         0.1309 
      27 H5        -2.5547   -1.4139    4.9586 H         1 <0>         0.1300 
      28 H6        -0.2477   -1.2185    5.8771 H         1 <0>         0.1298 
      29 H7         0.9002    1.2344    2.5883 H         1 <0>         0.1413 
      30 H8         2.8765    0.4573    6.4703 H         1 <0>         0.0972 
      31 H9         1.3865   -0.4770    6.7255 H         1 <0>         0.0968 
      32 H10        2.4368    2.8810    5.7201 H         1 <0>         0.4034 
      33 H11       -0.1677    3.9695    6.4007 H         1 <0>         0.0764 
      34 H12        1.3223    4.9037    6.1453 H         1 <0>         0.0833 
      35 H13        2.0737    4.3307    8.4334 H         1 <0>         0.0878 
      36 H14        0.5836    3.3965    8.6888 H         1 <0>         0.0899 
      37 H15       -1.6739    4.8865    8.4296 H         1 <0>         0.0810 
      38 H16       -1.1181    5.0687   10.1077 H         1 <0>         0.0967 
      39 H17       -2.2224    7.1469    9.7985 H         1 <0>         0.1151 
      40 H18       -1.8131    7.2586    8.0810 H         1 <0>         0.0972 
      41 H19       -0.2885    8.8060    9.1764 H         1 <0>         0.1443 
      42 H20        0.0571    7.6922   10.5223 H         1 <0>         0.1447 
@<TRIPOS>BOND
       1        1        2 1        
       2        1       23 1        
       3        1       24 1        
       4        1       25 1        
       5        2        3 1        
       6        3        8 ar       
       7        3        4 ar       
       8        4        5 ar       
       9        4       26 1        
      10        5        6 ar       
      11        5       27 1        
      12        6        7 ar       
      13        6       28 1        
      14        7        8 ar       
      15        7        9 1        
      16        8       29 1        
      17        9       10 1        
      18       10       11 1        
      19       10       30 1        
      20       10       31 1        
      21       11       12 2        
      22       11       13 am       
      23       13       14 1        
      24       13       32 1        
      25       14       15 1        
      26       14       33 1        
      27       14       34 1        
      28       15       16 1        
      29       15       35 1        
      30       15       36 1        
      31       16       20 1        
      32       16       17 1        
      33       17       18 1        
      34       17       37 1        
      35       17       38 1        
      36       18       19 1        
      37       18       39 1        
      38       18       40 1        
      39       19       20 1        
      40       19       41 1        
      41       19       42 1        
      42       20       21 2        
      43       20       22 2        

