#        1GCZ_R01_S0001_C0000_L00014_S0001_C0002_G0010_E0001.mol2
#        Tue Jun  6 14:14:55 2017
#        Descriptor:     26    36    13     8    11    13
#        Energy - RMSD - RMSD MassCentre:     -54.7977    999.9999    999.9999
#        Receptor:       1  Surface Point:     1  Conformer:     0
#        Ligand:        14  Surface Point:     1  Conformer:     2
#        BUDE Formal Charge: 0
#        ATOM Count: 42
#        Heavy ATOM Count: 22
@<TRIPOS>MOLECULE
ZINC61597528_1GCZ_R01_S0001_C0000_L00014_S0001_C0002_G0010_E0001
 42 43 0 0 0
SMALL
USER_CHARGES
@<TRIPOS>ATOM
       1 C1         0.1307    1.3801   -0.8409 C.3       1 <0>         0.0268 
       2 O1        -0.9545    1.7363    0.0196 O.3       1 <0>        -0.3133 
       3 C2        -1.0775    1.0677    1.2090 C.ar      1 <0>         0.1677 
       4 C3        -2.3682    0.7107    1.6172 C.ar      1 <0>        -0.2433 
       5 C4        -2.5936    0.0201    2.8111 C.ar      1 <0>        -0.0391 
       6 C5        -1.5080   -0.3193    3.6272 C.ar      1 <0>        -0.2473 
       7 C6        -0.2138    0.0478    3.2397 C.ar      1 <0>         0.1672 
       8 C7         0.0010    0.7225    2.0320 C.ar      1 <0>        -0.1836 
       9 O2         0.8501   -0.2547    4.0481 O.3       1 <0>        -0.2863 
      10 C8         0.6862   -0.0955    5.4598 C.3       1 <0>         0.0425 
      11 C9         0.3737    1.3489    5.7695 C.2       1 <0>         0.5165 
      12 O3        -0.7476    1.6655    6.1632 O.2       1 <0>        -0.5075 
      13 N1         1.3116    2.2794    5.6165 N.am      1 <0>        -0.7277 
      14 C10        1.0072    3.6856    5.9181 C.3       1 <0>         0.0923 
      15 C11        0.8322    3.8558    7.4264 C.3       1 <0>         0.1538 
      16 N2         0.5279    5.2619    7.7280 N.pl3     1 <0>        -0.9868 
      17 C12       -0.8423    5.7582    7.9206 C.3       1 <0>         0.0701 
      18 C13       -0.6688    7.2880    7.8868 C.3       1 <0>        -0.1323 
      19 C14        0.6463    7.5998    8.6249 C.3       1 <0>        -0.5903 
      20 S1         1.8021    6.4113    7.8986 S.o2      1 <0>         2.5602 
      21 O4         2.7400    5.9634    8.8809 O.2       1 <0>        -0.9507 
      22 O5         2.2132    6.8417    6.5983 O.2       1 <0>        -0.9534 
      23 H1         0.0397    0.3336   -1.1241 H         1 <0>         0.1028 
      24 H2         0.1040    2.0017   -1.7333 H         1 <0>         0.0577 
      25 H3         1.0725    1.5345   -0.3185 H         1 <0>         0.0578 
      26 H4        -3.2071    0.9786    0.9920 H         1 <0>         0.1309 
      27 H5        -3.5981   -0.2481    3.1035 H         1 <0>         0.1300 
      28 H6        -1.6641   -0.8600    4.5489 H         1 <0>         0.1298 
      29 H7         1.0278    0.9519    1.7881 H         1 <0>         0.1413 
      30 H8         1.6045   -0.3840    5.9669 H         1 <0>         0.0972 
      31 H9        -0.1320   -0.7249    5.8038 H         1 <0>         0.0968 
      32 H10        2.2328    2.0206    5.2933 H         1 <0>         0.4034 
      33 H11        0.0886    3.9751    5.4121 H         1 <0>         0.0764 
      34 H12        1.8251    4.3160    5.5751 H         1 <0>         0.0833 
      35 H13        1.7508    3.5673    7.9335 H         1 <0>         0.0878 
      36 H14        0.0142    3.2265    7.7706 H         1 <0>         0.0899 
      37 H15       -1.4478    5.4121    7.0855 H         1 <0>         0.0810 
      38 H16       -1.2882    5.4247    8.8553 H         1 <0>         0.0967 
      39 H17       -1.4891    7.7514    8.4309 H         1 <0>         0.1151 
      40 H18       -0.6629    7.6714    6.8686 H         1 <0>         0.0972 
      41 H19        0.9908    8.6046    8.3896 H         1 <0>         0.1443 
      42 H20        0.5892    7.4719    9.7038 H         1 <0>         0.1447 
@<TRIPOS>BOND
       1        1        2 1        
       2        1       23 1        
       3        1       24 1        
       4        1       25 1        
       5        2        3 1        
       6        3        8 ar       
       7        3        4 ar       
       8        4        5 ar       
       9        4       26 1        
      10        5        6 ar       
      11        5       27 1        
      12        6        7 ar       
      13        6       28 1        
      14        7        8 ar       
      15        7        9 1        
      16        8       29 1        
      17        9       10 1        
      18       10       11 1        
      19       10       30 1        
      20       10       31 1        
      21       11       12 2        
      22       11       13 am       
      23       13       14 1        
      24       13       32 1        
      25       14       15 1        
      26       14       33 1        
      27       14       34 1        
      28       15       16 1        
      29       15       35 1        
      30       15       36 1        
      31       16       20 1        
      32       16       17 1        
      33       17       18 1        
      34       17       37 1        
      35       17       38 1        
      36       18       19 1        
      37       18       39 1        
      38       18       40 1        
      39       19       20 1        
      40       19       41 1        
      41       19       42 1        
      42       20       21 2        
      43       20       22 2        

