#        1GCZ_R01_S0001_C0000_L00014_S0001_C0003_G0010_E0001.mol2
#        Tue Jun  6 09:59:27 2017
#        Descriptor:      6    18    16    12     9    14
#        Energy - RMSD - RMSD MassCentre:     -53.6122    999.9999    999.9999
#        Receptor:       1  Surface Point:     1  Conformer:     0
#        Ligand:        14  Surface Point:     1  Conformer:     3
#        BUDE Formal Charge: 0
#        ATOM Count: 42
#        Heavy ATOM Count: 22
@<TRIPOS>MOLECULE
ZINC61597528_1GCZ_R01_S0001_C0000_L00014_S0001_C0003_G0010_E0001
 42 43 0 0 0
SMALL
USER_CHARGES
@<TRIPOS>ATOM
       1 C1        -0.5687    3.2292    6.6040 C.3       1 <0>         0.0268 
       2 O1        -1.1485    2.5201    5.5058 O.3       1 <0>        -0.3133 
       3 C2        -0.3530    1.6451    4.8143 C.ar      1 <0>         0.1677 
       4 C3        -0.4836    1.6187    3.4207 C.ar      1 <0>        -0.2433 
       5 C4         0.2900    0.7655    2.6289 C.ar      1 <0>        -0.0391 
       6 C5         1.2141   -0.0917    3.2380 C.ar      1 <0>        -0.2473 
       7 C6         1.3417   -0.0883    4.6321 C.ar      1 <0>         0.1672 
       8 C7         0.5749    0.7846    5.4129 C.ar      1 <0>        -0.1836 
       9 O2         2.2226   -0.9459    5.2367 O.3       1 <0>        -0.2863 
      10 C8         3.4963   -1.1452    4.6180 C.3       1 <0>         0.0425 
      11 C9         4.2339    0.1706    4.5513 C.2       1 <0>         0.5165 
      12 O3         4.4135    0.7217    3.4665 O.2       1 <0>        -0.5075 
      13 N1         4.6899    0.7342    5.6664 N.am      1 <0>        -0.7277 
      14 C10        5.4080    2.0153    5.6015 C.3       1 <0>         0.0923 
      15 C11        5.8205    2.4388    7.0104 C.3       1 <0>         0.1538 
      16 N2         6.8363    1.5082    7.5233 N.pl3     1 <0>        -0.9868 
      17 C12        8.2785    1.7840    7.4543 C.3       1 <0>         0.0701 
      18 C13        8.9122    0.4248    7.8044 C.3       1 <0>        -0.1323 
      19 C14        8.0404   -0.1972    8.9110 C.3       1 <0>        -0.5903 
      20 S1         6.3627    0.0277    8.2701 S.o2      1 <0>         2.5602 
      21 O4         5.4504    0.2867    9.3404 O.2       1 <0>        -0.9507 
      22 O5         6.0820   -0.9350    7.2506 O.2       1 <0>        -0.9534 
      23 H1         0.2591    3.8376    6.2455 H         1 <0>         0.1028 
      24 H2        -1.3209    3.8706    7.0584 H         1 <0>         0.0577 
      25 H3        -0.2038    2.5180    7.3420 H         1 <0>         0.0578 
      26 H4        -1.2017    2.2742    2.9505 H         1 <0>         0.1309 
      27 H5         0.1744    0.7655    1.5551 H         1 <0>         0.1300 
      28 H6         1.8254   -0.7513    2.6401 H         1 <0>         0.1298 
      29 H7         0.7445    0.7474    6.4789 H         1 <0>         0.1413 
      30 H8         3.3546   -1.5323    3.6111 H         1 <0>         0.0972 
      31 H9         4.0766   -1.8563    5.2023 H         1 <0>         0.0968 
      32 H10        4.5430    0.2826    6.5578 H         1 <0>         0.4034 
      33 H11        4.7583    2.7745    5.1709 H         1 <0>         0.0764 
      34 H12        6.2957    1.9031    4.9827 H         1 <0>         0.0833 
      35 H13        4.9508    2.4217    7.6642 H         1 <0>         0.0878 
      36 H14        6.2333    3.4449    6.9812 H         1 <0>         0.0899 
      37 H15        8.5180    2.0792    6.4349 H         1 <0>         0.0810 
      38 H16        8.5958    2.5647    8.1426 H         1 <0>         0.0967 
      39 H17        9.9112    0.5897    8.2026 H         1 <0>         0.1151 
      40 H18        8.9848   -0.2233    6.9334 H         1 <0>         0.0972 
      41 H19        8.2357   -1.2637    9.0011 H         1 <0>         0.1443 
      42 H20        8.1496    0.2818    9.8818 H         1 <0>         0.1447 
@<TRIPOS>BOND
       1        1        2 1        
       2        1       23 1        
       3        1       24 1        
       4        1       25 1        
       5        2        3 1        
       6        3        8 ar       
       7        3        4 ar       
       8        4        5 ar       
       9        4       26 1        
      10        5        6 ar       
      11        5       27 1        
      12        6        7 ar       
      13        6       28 1        
      14        7        8 ar       
      15        7        9 1        
      16        8       29 1        
      17        9       10 1        
      18       10       11 1        
      19       10       30 1        
      20       10       31 1        
      21       11       12 2        
      22       11       13 am       
      23       13       14 1        
      24       13       32 1        
      25       14       15 1        
      26       14       33 1        
      27       14       34 1        
      28       15       16 1        
      29       15       35 1        
      30       15       36 1        
      31       16       20 1        
      32       16       17 1        
      33       17       18 1        
      34       17       37 1        
      35       17       38 1        
      36       18       19 1        
      37       18       39 1        
      38       18       40 1        
      39       19       20 1        
      40       19       41 1        
      41       19       42 1        
      42       20       21 2        
      43       20       22 2        

