#        1GCZ_R01_S0001_C0000_L00014_S0001_C0004_G0010_E0001.mol2
#        Tue Jun  6 09:59:28 2017
#        Descriptor:     14    24    26    13     8    14
#        Energy - RMSD - RMSD MassCentre:     -46.2899    999.9999    999.9999
#        Receptor:       1  Surface Point:     1  Conformer:     0
#        Ligand:        14  Surface Point:     1  Conformer:     4
#        BUDE Formal Charge: 0
#        ATOM Count: 42
#        Heavy ATOM Count: 22
@<TRIPOS>MOLECULE
ZINC61597528_1GCZ_R01_S0001_C0000_L00014_S0001_C0004_G0010_E0001
 42 43 0 0 0
SMALL
USER_CHARGES
@<TRIPOS>ATOM
       1 C1         2.1454   -3.3048    8.6709 C.3       1 <0>         0.0268 
       2 O1         0.9442   -2.9467    7.9826 O.3       1 <0>        -0.3133 
       3 C2         1.0225   -1.9829    7.0122 C.ar      1 <0>         0.1677 
       4 C3        -0.0148   -1.0449    6.9502 C.ar      1 <0>        -0.2433 
       5 C4        -0.0191   -0.0199    6.0001 C.ar      1 <0>        -0.0391 
       6 C5         1.0322    0.0724    5.0803 C.ar      1 <0>        -0.2473 
       7 C6         2.0667   -0.8701    5.1198 C.ar      1 <0>         0.1672 
       8 C7         2.0694   -1.8808    6.0884 C.ar      1 <0>        -0.1836 
       9 O2         3.0831   -0.8035    4.2035 O.3       1 <0>        -0.2863 
      10 C8         3.5949    0.4874    3.8623 C.3       1 <0>         0.0425 
      11 C9         4.1556    1.1485    5.0987 C.2       1 <0>         0.5165 
      12 O3         3.5822    2.1182    5.5921 O.2       1 <0>        -0.5075 
      13 N1         5.2702    0.6819    5.6545 N.am      1 <0>        -0.7277 
      14 C10        5.8158    1.3255    6.8582 C.3       1 <0>         0.0923 
      15 C11        7.0900    0.6006    7.2890 C.3       1 <0>         0.1538 
      16 N2         8.1404    0.8186    6.2840 N.pl3     1 <0>        -0.9868 
      17 C12        8.6181    2.1565    5.9065 C.3       1 <0>         0.0701 
      18 C13        9.9220    1.8603    5.1425 C.3       1 <0>        -0.1323 
      19 C14        9.6665    0.5912    4.3083 C.3       1 <0>        -0.5903 
      20 S1         8.8929   -0.5237    5.5061 S.o2      1 <0>         2.5602 
      21 O4         9.8784   -1.0737    6.3844 O.2       1 <0>        -0.9507 
      22 O5         7.9061   -1.3387    4.8681 O.2       1 <0>        -0.9534 
      23 H1         2.5423   -2.4317    9.1847 H         1 <0>         0.1028 
      24 H2         1.9278   -4.0857    9.3965 H         1 <0>         0.0577 
      25 H3         2.8784   -3.6688    7.9542 H         1 <0>         0.0578 
      26 H4        -0.8301   -1.1198    7.6545 H         1 <0>         0.1309 
      27 H5        -0.8284    0.6947    5.9739 H         1 <0>         0.1300 
      28 H6         1.0483    0.8632    4.3449 H         1 <0>         0.1298 
      29 H7         2.9115   -2.5568    6.0722 H         1 <0>         0.1413 
      30 H8         2.7932    1.1004    3.4559 H         1 <0>         0.0972 
      31 H9         4.3830    0.3810    3.1197 H         1 <0>         0.0968 
      32 H10        5.7417   -0.1144    5.2502 H         1 <0>         0.4034 
      33 H11        5.0826    1.2766    7.6605 H         1 <0>         0.0764 
      34 H12        6.0474    2.3661    6.6404 H         1 <0>         0.0833 
      35 H13        6.8893   -0.4651    7.3777 H         1 <0>         0.0878 
      36 H14        7.4218    0.9890    8.2496 H         1 <0>         0.0899 
      37 H15        7.8742    2.6098    5.2547 H         1 <0>         0.0810 
      38 H16        8.7925    2.8037    6.7636 H         1 <0>         0.0967 
      39 H17       10.7141    1.6504    5.8580 H         1 <0>         0.1151 
      40 H18       10.2253    2.6999    4.5204 H         1 <0>         0.0972 
      41 H19        8.9528    0.7914    3.5118 H         1 <0>         0.1443 
      42 H20       10.5682    0.1456    3.8933 H         1 <0>         0.1447 
@<TRIPOS>BOND
       1        1        2 1        
       2        1       23 1        
       3        1       24 1        
       4        1       25 1        
       5        2        3 1        
       6        3        8 ar       
       7        3        4 ar       
       8        4        5 ar       
       9        4       26 1        
      10        5        6 ar       
      11        5       27 1        
      12        6        7 ar       
      13        6       28 1        
      14        7        8 ar       
      15        7        9 1        
      16        8       29 1        
      17        9       10 1        
      18       10       11 1        
      19       10       30 1        
      20       10       31 1        
      21       11       12 2        
      22       11       13 am       
      23       13       14 1        
      24       13       32 1        
      25       14       15 1        
      26       14       33 1        
      27       14       34 1        
      28       15       16 1        
      29       15       35 1        
      30       15       36 1        
      31       16       20 1        
      32       16       17 1        
      33       17       18 1        
      34       17       37 1        
      35       17       38 1        
      36       18       19 1        
      37       18       39 1        
      38       18       40 1        
      39       19       20 1        
      40       19       41 1        
      41       19       42 1        
      42       20       21 2        
      43       20       22 2        

