#        1GCZ_R01_S0001_C0000_L00014_S0001_C0004_G0010_E0001.mol2
#        Tue Jun  6 14:14:58 2017
#        Descriptor:     15    12    26    11     7    13
#        Energy - RMSD - RMSD MassCentre:     -45.6036    999.9999    999.9999
#        Receptor:       1  Surface Point:     1  Conformer:     0
#        Ligand:        14  Surface Point:     1  Conformer:     4
#        BUDE Formal Charge: 0
#        ATOM Count: 42
#        Heavy ATOM Count: 22
@<TRIPOS>MOLECULE
ZINC61597528_1GCZ_R01_S0001_C0000_L00014_S0001_C0004_G0010_E0001
 42 43 0 0 0
SMALL
USER_CHARGES
@<TRIPOS>ATOM
       1 C1         0.3642   -1.3471    0.6255 C.3       1 <0>         0.0268 
       2 O1        -0.8229   -0.7988    1.2042 O.3       1 <0>        -0.3133 
       3 C2        -0.7900   -0.4491    2.5284 C.ar      1 <0>         0.1677 
       4 C3        -1.9187   -0.7458    3.3015 C.ar      1 <0>        -0.2433 
       5 C4        -1.9758   -0.4349    4.6629 C.ar      1 <0>        -0.0391 
       6 C5        -0.8847    0.1955    5.2728 C.ar      1 <0>        -0.2473 
       7 C6         0.2431    0.5141    4.5070 C.ar      1 <0>         0.1672 
       8 C7         0.2959    0.1802    3.1485 C.ar      1 <0>        -0.1836 
       9 O2         1.3022    1.1579    5.0907 O.3       1 <0>        -0.2863 
      10 C8         1.6888    0.7555    6.4073 C.3       1 <0>         0.0425 
      11 C9         2.0928   -0.6993    6.3897 C.2       1 <0>         0.5165 
      12 O3         1.3854   -1.5415    6.9399 O.2       1 <0>        -0.5075 
      13 N1         3.2145   -1.0702    5.7787 N.am      1 <0>        -0.7277 
      14 C10        3.6078   -2.4865    5.7615 C.3       1 <0>         0.0923 
      15 C11        4.9243   -2.6394    5.0012 C.3       1 <0>         0.1538 
      16 N2         6.0060   -1.9979    5.7623 N.pl3     1 <0>        -0.9868 
      17 C12        6.3558   -2.3886    7.1355 C.3       1 <0>         0.0701 
      18 C13        7.7305   -1.7279    7.3483 C.3       1 <0>        -0.1323 
      19 C14        7.6707   -0.3521    6.6590 C.3       1 <0>        -0.5903 
      20 S1         6.9505   -0.7457    5.0458 S.o2      1 <0>         2.5602 
      21 O4         7.9327   -1.3388    4.1924 O.2       1 <0>        -0.9507 
      22 O5         6.1026    0.3170    4.6022 O.2       1 <0>        -0.9534 
      23 H1         0.6285   -2.2663    1.1441 H         1 <0>         0.1028 
      24 H2         0.1886   -1.5611   -0.4267 H         1 <0>         0.0577 
      25 H3         1.1772   -0.6304    0.7197 H         1 <0>         0.0578 
      26 H4        -2.7639   -1.2252    2.8302 H         1 <0>         0.1309 
      27 H5        -2.8559   -0.6769    5.2401 H         1 <0>         0.1300 
      28 H6        -0.9093    0.4353    6.3256 H         1 <0>         0.1298 
      29 H7         1.2069    0.4361    2.6280 H         1 <0>         0.1413 
      30 H8         0.8517    0.8905    7.0890 H         1 <0>         0.0972 
      31 H9         2.5295    1.3607    6.7399 H         1 <0>         0.0968 
      32 H10        3.7961   -0.3795    5.3265 H         1 <0>         0.4034 
      33 H11        2.8348   -3.0723    5.2685 H         1 <0>         0.0764 
      34 H12        3.7362   -2.8403    6.7824 H         1 <0>         0.0833 
      35 H13        4.8375   -2.1654    4.0257 H         1 <0>         0.0878 
      36 H14        5.1492   -3.6961    4.8730 H         1 <0>         0.0899 
      37 H15        5.6094   -1.9694    7.8070 H         1 <0>         0.0810 
      38 H16        6.4026   -3.4670    7.2723 H         1 <0>         0.0967 
      39 H17        8.4937   -2.3279    6.8574 H         1 <0>         0.1151 
      40 H18        7.9780   -1.6416    8.4043 H         1 <0>         0.0972 
      41 H19        6.9915    0.3139    7.1872 H         1 <0>         0.1443 
      42 H20        8.6407    0.1265    6.5417 H         1 <0>         0.1447 
@<TRIPOS>BOND
       1        1        2 1        
       2        1       23 1        
       3        1       24 1        
       4        1       25 1        
       5        2        3 1        
       6        3        8 ar       
       7        3        4 ar       
       8        4        5 ar       
       9        4       26 1        
      10        5        6 ar       
      11        5       27 1        
      12        6        7 ar       
      13        6       28 1        
      14        7        8 ar       
      15        7        9 1        
      16        8       29 1        
      17        9       10 1        
      18       10       11 1        
      19       10       30 1        
      20       10       31 1        
      21       11       12 2        
      22       11       13 am       
      23       13       14 1        
      24       13       32 1        
      25       14       15 1        
      26       14       33 1        
      27       14       34 1        
      28       15       16 1        
      29       15       35 1        
      30       15       36 1        
      31       16       20 1        
      32       16       17 1        
      33       17       18 1        
      34       17       37 1        
      35       17       38 1        
      36       18       19 1        
      37       18       39 1        
      38       18       40 1        
      39       19       20 1        
      40       19       41 1        
      41       19       42 1        
      42       20       21 2        
      43       20       22 2        

