#        1GCZ_R01_S0001_C0000_L00003_S0001_C0023_G0010_E0001.mol2
#        Tue Jun  6 14:04:12 2017
#        Descriptor:     31     8    28    14     6    13
#        Energy - RMSD - RMSD MassCentre:     -53.7523    999.9999    999.9999
#        Receptor:       1  Surface Point:     1  Conformer:     0
#        Ligand:         3  Surface Point:     1  Conformer:    23
#        BUDE Formal Charge: 0
#        ATOM Count: 58
#        Heavy ATOM Count: 30
@<TRIPOS>MOLECULE
ZINC61580633_1GCZ_R01_S0001_C0000_L00003_S0001_C0023_G0010_E0001
 58 59 0 0 0
SMALL
USER_CHARGES
@<TRIPOS>ATOM
       1 C1        12.2448    1.8903    3.3308 C.3       1 <0>        -0.1532 
       2 C2        11.3366    1.9883    2.1085 C.3       1 <0>        -0.1224 
       3 C3        10.2051    0.9687    2.2327 C.3       1 <0>        -0.1198 
       4 C4        10.7947   -0.4394    2.2996 C.3       1 <0>         0.0610 
       5 O1         9.7359   -1.3934    2.4158 O.3       1 <0>        -0.3878 
       6 C5        10.2291   -2.7340    2.4828 C.3       1 <0>         0.0487 
       7 C6         9.0539   -3.7027    2.6058 C.3       1 <0>         0.1244 
       8 N1         8.4686   -3.5936    3.9498 N.am      1 <0>        -0.7216 
       9 C7         7.4262   -4.3489    4.2839 C.2       1 <0>         0.5161 
      10 O2         6.9516   -5.1386    3.4693 O.2       1 <0>        -0.5151 
      11 C8         6.8249   -4.2368    5.6646 C.3       1 <0>         0.0490 
      12 O3         6.1651   -2.9749    5.7952 O.3       1 <0>        -0.3194 
      13 C9         6.9145   -1.8558    5.7029 C.2       1 <0>         0.5417 
      14 O4         8.1168   -1.9398    5.5136 O.2       1 <0>        -0.5337 
      15 C10        6.2772   -0.5264    5.8315 C.2       1 <0>        -0.2559 
      16 C11        7.0050    0.7603    5.7600 C.2       1 <0>        -0.0791 
      17 C12        6.1973    1.8111    5.9201 C.2       1 <0>        -0.2585 
      18 S1         4.5078    1.3429    6.1619 S.3       1 <0>         0.3028 
      19 C13        4.9637   -0.3630    6.0399 C.2       1 <0>         0.0893 
      20 N2         4.1049   -1.4246    6.1506 N.am      1 <0>        -0.6099 
      21 C14        2.8082   -1.2134    6.3576 C.2       1 <0>         0.5551 
      22 O5         2.3797   -0.0641    6.4495 O.2       1 <0>        -0.4939 
      23 C15        1.8818   -2.3614    6.4769 C.ar      1 <0>        -0.1466 
      24 C16        0.5255   -2.0934    6.6976 C.ar      1 <0>        -0.0772 
      25 C17       -0.3869   -3.1372    6.8923 C.ar      1 <0>        -0.1241 
      26 C18        0.0425   -4.4694    6.8800 C.ar      1 <0>        -0.0446 
      27 C19        1.3881   -4.7423    6.6068 C.ar      1 <0>        -0.1261 
      28 C20        2.2919   -3.6967    6.3837 C.ar      1 <0>        -0.0460 
      29 C21       -0.9459   -5.5779    7.1537 C.3       1 <0>        -0.0928 
      30 C22       -0.9769   -5.8722    8.6506 C.3       1 <0>        -0.1485 
      31 H1        12.6742    0.8921    3.3837 H         1 <0>         0.0567 
      32 H2        11.6637    2.0838    4.2300 H         1 <0>         0.0554 
      33 H3        13.0426    2.6253    3.2488 H         1 <0>         0.0557 
      34 H4        10.9162    2.9900    2.0475 H         1 <0>         0.0632 
      35 H5        11.9135    1.7811    1.2096 H         1 <0>         0.0635 
      36 H6         9.6359    1.1663    3.1386 H         1 <0>         0.0711 
      37 H7         9.5498    1.0462    1.3677 H         1 <0>         0.0704 
      38 H8        11.3635   -0.6385    1.3938 H         1 <0>         0.0498 
      39 H9        11.4496   -0.5182    3.1648 H         1 <0>         0.0505 
      40 H10       10.8776   -2.8398    3.3500 H         1 <0>         0.0584 
      41 H11       10.7914   -2.9599    1.5791 H         1 <0>         0.0702 
      42 H12        9.4034   -4.7203    2.4447 H         1 <0>         0.0872 
      43 H13        8.2999   -3.4553    1.8614 H         1 <0>         0.0805 
      44 H14        8.8576   -2.9454    4.6196 H         1 <0>         0.4058 
      45 H15        6.1051   -5.0389    5.8137 H         1 <0>         0.1008 
      46 H16        7.6128   -4.3122    6.4111 H         1 <0>         0.0999 
      47 H17        8.0690    0.8191    5.5848 H         1 <0>         0.1557 
      48 H18        6.5508    2.8311    5.8891 H         1 <0>         0.1929 
      49 H19        4.4567   -2.3683    6.0751 H         1 <0>         0.4317 
      50 H20        0.1777   -1.0713    6.7229 H         1 <0>         0.1287 
      51 H21       -1.4318   -2.9185    7.0555 H         1 <0>         0.1326 
      52 H22        1.7178   -5.7700    6.5667 H         1 <0>         0.1342 
      53 H23        3.3029   -3.9693    6.1194 H         1 <0>         0.1410 
      54 H24       -0.6446   -6.4729    6.6136 H         1 <0>         0.0777 
      55 H25       -1.9357   -5.2701    6.8233 H         1 <0>         0.0771 
      56 H26       -1.2904   -4.9801    9.1886 H         1 <0>         0.0623 
      57 H27        0.0167   -6.1663    8.9826 H         1 <0>         0.0572 
      58 H28       -1.6791   -6.6799    8.8462 H         1 <0>         0.0578 
@<TRIPOS>BOND
       1        1        2 1        
       2        1       31 1        
       3        1       32 1        
       4        1       33 1        
       5        2        3 1        
       6        2       34 1        
       7        2       35 1        
       8        3        4 1        
       9        3       36 1        
      10        3       37 1        
      11        4        5 1        
      12        4       38 1        
      13        4       39 1        
      14        5        6 1        
      15        6        7 1        
      16        6       40 1        
      17        6       41 1        
      18        7        8 1        
      19        7       42 1        
      20        7       43 1        
      21        8        9 am       
      22        8       44 1        
      23        9       10 2        
      24        9       11 1        
      25       11       12 1        
      26       11       45 1        
      27       11       46 1        
      28       12       13 1        
      29       13       14 2        
      30       13       15 1        
      31       15       19 2        
      32       15       16 1        
      33       16       17 2        
      34       16       47 1        
      35       17       18 1        
      36       17       48 1        
      37       18       19 1        
      38       19       20 1        
      39       20       21 am       
      40       20       49 1        
      41       21       22 2        
      42       21       23 1        
      43       23       28 ar       
      44       23       24 ar       
      45       24       25 ar       
      46       24       50 1        
      47       25       26 ar       
      48       25       51 1        
      49       26       27 ar       
      50       26       29 1        
      51       27       28 ar       
      52       27       52 1        
      53       28       53 1        
      54       29       30 1        
      55       29       54 1        
      56       29       55 1        
      57       30       56 1        
      58       30       57 1        
      59       30       58 1        

