#        1GCZ_R01_S0001_C0000_L00014_S0001_C0005_G0010_E0001.mol2
#        Tue Jun  6 14:14:59 2017
#        Descriptor:     18    27    32     7     8    12
#        Energy - RMSD - RMSD MassCentre:     -60.2969    999.9999    999.9999
#        Receptor:       1  Surface Point:     1  Conformer:     0
#        Ligand:        14  Surface Point:     1  Conformer:     5
#        BUDE Formal Charge: 0
#        ATOM Count: 42
#        Heavy ATOM Count: 22
@<TRIPOS>MOLECULE
ZINC61597528_1GCZ_R01_S0001_C0000_L00014_S0001_C0005_G0010_E0001
 42 43 0 0 0
SMALL
USER_CHARGES
@<TRIPOS>ATOM
       1 C1        -2.9699   -2.5399    8.3193 C.3       1 <0>         0.0268 
       2 O1        -2.4341   -1.5199    9.1662 O.3       1 <0>        -0.3133 
       3 C2        -1.6804   -0.5337    8.5864 C.ar      1 <0>         0.1677 
       4 C3        -1.8656    0.7748    9.0484 C.ar      1 <0>        -0.2433 
       5 C4        -1.1374    1.8463    8.5242 C.ar      1 <0>        -0.0391 
       6 C5        -0.2042    1.6139    7.5068 C.ar      1 <0>        -0.2473 
       7 C6        -0.0224    0.3129    7.0230 C.ar      1 <0>         0.1672 
       8 C7        -0.7441   -0.7549    7.5695 C.ar      1 <0>        -0.1836 
       9 O2         0.8673    0.0830    6.0069 O.3       1 <0>        -0.2863 
      10 C8         0.4933   -0.8446    4.9848 C.3       1 <0>         0.0425 
      11 C9        -0.7544   -0.3520    4.2916 C.2       1 <0>         0.5165 
      12 O3        -1.8204   -0.9453    4.4472 O.2       1 <0>        -0.5075 
      13 N1        -0.7006    0.7242    3.5119 N.am      1 <0>        -0.7277 
      14 C10       -1.9154    1.2037    2.8370 C.3       1 <0>         0.0923 
      15 C11       -2.3151    0.2127    1.7449 C.3       1 <0>         0.1538 
      16 N2        -1.3061    0.2295    0.6760 N.pl3     1 <0>        -0.9868 
      17 C12       -1.2494    1.2795   -0.3512 C.3       1 <0>         0.0701 
      18 C13        0.1420    1.0795   -0.9802 C.3       1 <0>        -0.1323 
      19 C14        0.3782   -0.4405   -1.0555 C.3       1 <0>        -0.5903 
      20 S1        -0.1000   -1.0003    0.5979 S.o2      1 <0>         2.5602 
      21 O4         0.9292   -0.6987    1.5438 O.2       1 <0>        -0.9507 
      22 O5        -0.7159   -2.2893    0.5324 O.2       1 <0>        -0.9534 
      23 H1        -2.1549   -3.0704    7.8313 H         1 <0>         0.1028 
      24 H2        -3.5514   -3.2384    8.9173 H         1 <0>         0.0577 
      25 H3        -3.6103   -2.0857    7.5662 H         1 <0>         0.0578 
      26 H4        -2.5907    0.9562    9.8280 H         1 <0>         0.1309 
      27 H5        -1.2947    2.8467    8.8993 H         1 <0>         0.1300 
      28 H6         0.3726    2.4295    7.0964 H         1 <0>         0.1298 
      29 H7        -0.5337   -1.7328    7.1623 H         1 <0>         0.1413 
      30 H8         0.2994   -1.8178    5.4307 H         1 <0>         0.0972 
      31 H9         1.3000   -0.9311    4.2599 H         1 <0>         0.0968 
      32 H10        0.1742    1.2124    3.3834 H         1 <0>         0.4034 
      33 H11       -1.7226    2.1767    2.3900 H         1 <0>         0.0764 
      34 H12       -2.7231    1.2900    3.5608 H         1 <0>         0.0833 
      35 H13       -3.2822    0.4952    1.3343 H         1 <0>         0.0878 
      36 H14       -2.3780   -0.7879    2.1676 H         1 <0>         0.0899 
      37 H15       -2.0395    1.0882   -1.0743 H         1 <0>         0.0810 
      38 H16       -1.3657    2.2812    0.0573 H         1 <0>         0.0967 
      39 H17        0.8943    1.5146   -0.3259 H         1 <0>         0.1151 
      40 H18        0.2143    1.5498   -1.9587 H         1 <0>         0.0972 
      41 H19       -0.2900   -0.8983   -1.7819 H         1 <0>         0.1443 
      42 H20        1.4074   -0.7179   -1.2738 H         1 <0>         0.1447 
@<TRIPOS>BOND
       1        1        2 1        
       2        1       23 1        
       3        1       24 1        
       4        1       25 1        
       5        2        3 1        
       6        3        8 ar       
       7        3        4 ar       
       8        4        5 ar       
       9        4       26 1        
      10        5        6 ar       
      11        5       27 1        
      12        6        7 ar       
      13        6       28 1        
      14        7        8 ar       
      15        7        9 1        
      16        8       29 1        
      17        9       10 1        
      18       10       11 1        
      19       10       30 1        
      20       10       31 1        
      21       11       12 2        
      22       11       13 am       
      23       13       14 1        
      24       13       32 1        
      25       14       15 1        
      26       14       33 1        
      27       14       34 1        
      28       15       16 1        
      29       15       35 1        
      30       15       36 1        
      31       16       20 1        
      32       16       17 1        
      33       17       18 1        
      34       17       37 1        
      35       17       38 1        
      36       18       19 1        
      37       18       39 1        
      38       18       40 1        
      39       19       20 1        
      40       19       41 1        
      41       19       42 1        
      42       20       21 2        
      43       20       22 2        

