#        1GCZ_R01_S0001_C0000_L00014_S0001_C0006_G0010_E0001.mol2
#        Tue Jun  6 09:59:29 2017
#        Descriptor:      8     4    26    11     6    13
#        Energy - RMSD - RMSD MassCentre:     -48.6319    999.9999    999.9999
#        Receptor:       1  Surface Point:     1  Conformer:     0
#        Ligand:        14  Surface Point:     1  Conformer:     6
#        BUDE Formal Charge: 0
#        ATOM Count: 42
#        Heavy ATOM Count: 22
@<TRIPOS>MOLECULE
ZINC61597528_1GCZ_R01_S0001_C0000_L00014_S0001_C0006_G0010_E0001
 42 43 0 0 0
SMALL
USER_CHARGES
@<TRIPOS>ATOM
       1 C1         0.4099   -0.0998   -0.1554 C.3       1 <0>         0.0268 
       2 O1        -0.1098   -0.9366    0.8812 O.3       1 <0>        -0.3133 
       3 C2        -0.0395   -0.4804    2.1710 C.ar      1 <0>         0.1677 
       4 C3        -1.1445   -0.7134    2.9982 C.ar      1 <0>        -0.2433 
       5 C4        -1.1632   -0.2928    4.3310 C.ar      1 <0>        -0.0391 
       6 C5        -0.0565    0.3853    4.8556 C.ar      1 <0>        -0.2473 
       7 C6         1.0478    0.6408    4.0340 C.ar      1 <0>         0.1672 
       8 C7         1.0622    0.1977    2.7062 C.ar      1 <0>        -0.1836 
       9 O2         2.1216    1.3304    4.5325 O.3       1 <0>        -0.2863 
      10 C8         2.5471    1.0364    5.8657 C.3       1 <0>         0.0425 
      11 C9         2.9542   -0.4149    5.9546 C.2       1 <0>         0.5165 
      12 O3         2.2653   -1.2098    6.5920 O.2       1 <0>        -0.5075 
      13 N1         4.0588   -0.8340    5.3436 N.am      1 <0>        -0.7277 
      14 C10        4.4552   -2.2469    5.4303 C.3       1 <0>         0.0923 
      15 C11        4.9099   -2.5609    6.8549 C.3       1 <0>         0.1538 
      16 N2         5.3062   -3.9738    6.9415 N.pl3     1 <0>        -0.9868 
      17 C12        4.3331   -5.0701    7.0516 C.3       1 <0>         0.0701 
      18 C13        5.1765   -6.3199    6.7378 C.3       1 <0>        -0.1323 
      19 C14        6.5515   -6.1014    7.3960 C.3       1 <0>        -0.5903 
      20 S1         6.9722   -4.4154    6.8896 S.o2      1 <0>         2.5602 
      21 O4         7.4124   -4.3984    5.5291 O.2       1 <0>        -0.9507 
      22 O5         7.6912   -3.7444    7.9278 O.2       1 <0>        -0.9534 
      23 H1         1.4705    0.0723    0.0158 H         1 <0>         0.1028 
      24 H2         0.2719   -0.5878   -1.1179 H         1 <0>         0.0577 
      25 H3        -0.1178    0.8516   -0.1515 H         1 <0>         0.0578 
      26 H4        -2.0018   -1.2298    2.5922 H         1 <0>         0.1309 
      27 H5        -2.0256   -0.4873    4.9511 H         1 <0>         0.1300 
      28 H6        -0.0513    0.7099    5.8857 H         1 <0>         0.1298 
      29 H7         1.9572    0.4105    2.1404 H         1 <0>         0.1413 
      30 H8         1.7297    1.2263    6.5581 H         1 <0>         0.0972 
      31 H9         3.3956    1.6669    6.1235 H         1 <0>         0.0968 
      32 H10        4.6254   -0.1821    4.8200 H         1 <0>         0.4034 
      33 H11        5.2732   -2.4378    4.7389 H         1 <0>         0.0764 
      34 H12        3.6073   -2.8784    5.1734 H         1 <0>         0.0833 
      35 H13        4.0923   -2.3711    7.5472 H         1 <0>         0.0878 
      36 H14        5.7582   -1.9305    7.1128 H         1 <0>         0.0899 
      37 H15        3.9624   -5.0919    8.0742 H         1 <0>         0.0810 
      38 H16        3.4962   -4.9669    6.3640 H         1 <0>         0.0967 
      39 H17        5.3160   -6.3943    5.6615 H         1 <0>         0.1151 
      40 H18        4.6974   -7.2300    7.0928 H         1 <0>         0.0972 
      41 H19        6.4673   -6.1253    8.4806 H         1 <0>         0.1443 
      42 H20        7.3152   -6.8040    7.0690 H         1 <0>         0.1447 
@<TRIPOS>BOND
       1        1        2 1        
       2        1       23 1        
       3        1       24 1        
       4        1       25 1        
       5        2        3 1        
       6        3        8 ar       
       7        3        4 ar       
       8        4        5 ar       
       9        4       26 1        
      10        5        6 ar       
      11        5       27 1        
      12        6        7 ar       
      13        6       28 1        
      14        7        8 ar       
      15        7        9 1        
      16        8       29 1        
      17        9       10 1        
      18       10       11 1        
      19       10       30 1        
      20       10       31 1        
      21       11       12 2        
      22       11       13 am       
      23       13       14 1        
      24       13       32 1        
      25       14       15 1        
      26       14       33 1        
      27       14       34 1        
      28       15       16 1        
      29       15       35 1        
      30       15       36 1        
      31       16       20 1        
      32       16       17 1        
      33       17       18 1        
      34       17       37 1        
      35       17       38 1        
      36       18       19 1        
      37       18       39 1        
      38       18       40 1        
      39       19       20 1        
      40       19       41 1        
      41       19       42 1        
      42       20       21 2        
      43       20       22 2        

