#        1GCZ_R01_S0001_C0000_L00014_S0001_C0006_G0010_E0001.mol2
#        Tue Jun  6 14:15:01 2017
#        Descriptor:      6     2    29    11     7    12
#        Energy - RMSD - RMSD MassCentre:     -48.1985    999.9999    999.9999
#        Receptor:       1  Surface Point:     1  Conformer:     0
#        Ligand:        14  Surface Point:     1  Conformer:     6
#        BUDE Formal Charge: 0
#        ATOM Count: 42
#        Heavy ATOM Count: 22
@<TRIPOS>MOLECULE
ZINC61597528_1GCZ_R01_S0001_C0000_L00014_S0001_C0006_G0010_E0001
 42 43 0 0 0
SMALL
USER_CHARGES
@<TRIPOS>ATOM
       1 C1        -1.7159    1.0068    0.7396 C.3       1 <0>         0.0268 
       2 O1        -1.5713   -0.1911    1.5071 O.3       1 <0>        -0.3133 
       3 C2        -1.1560   -0.0749    2.8073 C.ar      1 <0>         0.1677 
       4 C3        -1.7718   -0.8990    3.7567 C.ar      1 <0>        -0.2433 
       5 C4        -1.4103   -0.8583    5.1062 C.ar      1 <0>        -0.0391 
       6 C5        -0.4144    0.0311    5.5268 C.ar      1 <0>        -0.2473 
       7 C6         0.1967    0.8737    4.5907 C.ar      1 <0>         0.1672 
       8 C7        -0.1608    0.8101    3.2386 C.ar      1 <0>        -0.1836 
       9 O2         1.1506    1.7677    5.0005 O.3       1 <0>        -0.2863 
      10 C8         2.0997    1.3344    5.9785 C.3       1 <0>         0.0425 
      11 C9         2.8849    0.1657    5.4332 C.2       1 <0>         0.5165 
      12 O3         2.7205   -0.9593    5.9024 O.2       1 <0>        -0.5075 
      13 N1         3.7553    0.3528    4.4450 N.am      1 <0>        -0.7277 
      14 C10        4.5199   -0.7850    3.9143 C.3       1 <0>         0.0923 
      15 C11        5.5340   -1.2479    4.9592 C.3       1 <0>         0.1538 
      16 N2         6.2985   -2.3858    4.4284 N.pl3     1 <0>        -0.9868 
      17 C12        5.7680   -3.7561    4.3923 C.3       1 <0>         0.0701 
      18 C13        6.7388   -4.4828    3.4430 C.3       1 <0>        -0.1323 
      19 C14        8.1463   -3.9374    3.7487 C.3       1 <0>        -0.5903 
      20 S1         7.8806   -2.1474    3.7854 S.o2      1 <0>         2.5602 
      21 O4         7.7663   -1.6327    2.4562 O.2       1 <0>        -0.9507 
      22 O5         8.7227   -1.5353    4.7659 O.2       1 <0>        -0.9534 
      23 H1        -0.7553    1.5136    0.6750 H         1 <0>         0.1028 
      24 H2        -2.0623    0.7561   -0.2608 H         1 <0>         0.0577 
      25 H3        -2.4399    1.6604    1.2215 H         1 <0>         0.0578 
      26 H4        -2.5455   -1.5802    3.4344 H         1 <0>         0.1309 
      27 H5        -1.8968   -1.5065    5.8198 H         1 <0>         0.1300 
      28 H6        -0.1175    0.0695    6.5645 H         1 <0>         0.1298 
      29 H7         0.3699    1.4734    2.5717 H         1 <0>         0.1413 
      30 H8         1.5764    1.0290    6.8822 H         1 <0>         0.0972 
      31 H9         2.7802    2.1509    6.2109 H         1 <0>         0.0968 
      32 H10        3.8912    1.2762    4.0590 H         1 <0>         0.4034 
      33 H11        5.0443   -0.4805    3.0109 H         1 <0>         0.0764 
      34 H12        3.8405   -1.6025    3.6821 H         1 <0>         0.0833 
      35 H13        5.0106   -1.5534    5.8628 H         1 <0>         0.0878 
      36 H14        6.2145   -0.4315    5.1918 H         1 <0>         0.0899 
      37 H15        5.8208   -4.1659    5.3988 H         1 <0>         0.0810 
      38 H16        4.7421   -3.8059    4.0333 H         1 <0>         0.0967 
      39 H17        6.4863   -4.2319    2.4151 H         1 <0>         0.1151 
      40 H18        6.6881   -5.5630    3.5627 H         1 <0>         0.0972 
      41 H19        8.4775   -4.2577    4.7344 H         1 <0>         0.1443 
      42 H20        8.8942   -4.2009    3.0038 H         1 <0>         0.1447 
@<TRIPOS>BOND
       1        1        2 1        
       2        1       23 1        
       3        1       24 1        
       4        1       25 1        
       5        2        3 1        
       6        3        8 ar       
       7        3        4 ar       
       8        4        5 ar       
       9        4       26 1        
      10        5        6 ar       
      11        5       27 1        
      12        6        7 ar       
      13        6       28 1        
      14        7        8 ar       
      15        7        9 1        
      16        8       29 1        
      17        9       10 1        
      18       10       11 1        
      19       10       30 1        
      20       10       31 1        
      21       11       12 2        
      22       11       13 am       
      23       13       14 1        
      24       13       32 1        
      25       14       15 1        
      26       14       33 1        
      27       14       34 1        
      28       15       16 1        
      29       15       35 1        
      30       15       36 1        
      31       16       20 1        
      32       16       17 1        
      33       17       18 1        
      34       17       37 1        
      35       17       38 1        
      36       18       19 1        
      37       18       39 1        
      38       18       40 1        
      39       19       20 1        
      40       19       41 1        
      41       19       42 1        
      42       20       21 2        
      43       20       22 2        

