#        1GCZ_R01_S0001_C0000_L00014_S0001_C0007_G0010_E0001.mol2
#        Tue Jun  6 09:59:30 2017
#        Descriptor:     34    23    30    15    10    14
#        Energy - RMSD - RMSD MassCentre:     -51.0003    999.9999    999.9999
#        Receptor:       1  Surface Point:     1  Conformer:     0
#        Ligand:        14  Surface Point:     1  Conformer:     7
#        BUDE Formal Charge: 0
#        ATOM Count: 42
#        Heavy ATOM Count: 22
@<TRIPOS>MOLECULE
ZINC61597528_1GCZ_R01_S0001_C0000_L00014_S0001_C0007_G0010_E0001
 42 43 0 0 0
SMALL
USER_CHARGES
@<TRIPOS>ATOM
       1 C1        11.8722    3.0249    2.5406 C.3       1 <0>         0.0268 
       2 O1        10.7645    2.1352    2.3783 O.3       1 <0>        -0.3133 
       3 C2        10.4683    1.2831    3.4093 C.ar      1 <0>         0.1677 
       4 C3        10.1022   -0.0268    3.0779 C.ar      1 <0>        -0.2433 
       5 C4         9.7898   -0.9704    4.0603 C.ar      1 <0>        -0.0391 
       6 C5         9.8346   -0.6015    5.4101 C.ar      1 <0>        -0.2473 
       7 C6        10.1816    0.7103    5.7544 C.ar      1 <0>         0.1672 
       8 C7        10.5109    1.6411    4.7620 C.ar      1 <0>        -0.1836 
       9 O2        10.1981    1.0862    7.0717 O.3       1 <0>        -0.2863 
      10 C8         9.1511    0.6066    7.9193 C.3       1 <0>         0.0425 
      11 C9         7.8206    1.0986    7.4017 C.2       1 <0>         0.5165 
      12 O3         7.0237    0.3068    6.9010 O.2       1 <0>        -0.5075 
      13 N1         7.5103    2.3891    7.4872 N.am      1 <0>        -0.7277 
      14 C10        6.2150    2.8680    6.9834 C.3       1 <0>         0.0923 
      15 C11        5.0962    2.3556    7.8890 C.3       1 <0>         0.1538 
      16 N2         3.8009    2.8345    7.3850 N.pl3     1 <0>        -0.9868 
      17 C12        3.3111    2.5349    6.0319 C.3       1 <0>         0.0701 
      18 C13        1.8192    2.9089    6.1085 C.3       1 <0>        -0.1323 
      19 C14        1.7265    4.1802    6.9729 C.3       1 <0>        -0.5903 
      20 S1         2.7649    3.7698    8.3974 S.o2      1 <0>         2.5602 
      21 O4         2.0693    2.8904    9.2850 O.2       1 <0>        -0.9507 
      22 O5         3.4543    4.9315    8.8669 O.2       1 <0>        -0.9534 
      23 H1        12.7824    2.4469    2.6870 H         1 <0>         0.1028 
      24 H2        11.9736    3.6429    1.6510 H         1 <0>         0.0577 
      25 H3        11.7022    3.6605    3.4071 H         1 <0>         0.0578 
      26 H4        10.0600   -0.3102    2.0367 H         1 <0>         0.1309 
      27 H5         9.5137   -1.9764    3.7807 H         1 <0>         0.1300 
      28 H6         9.6041   -1.3207    6.1821 H         1 <0>         0.1298 
      29 H7        10.7912    2.6264    5.1042 H         1 <0>         0.1413 
      30 H8         9.3048    0.9758    8.9312 H         1 <0>         0.0972 
      31 H9         9.1576   -0.4814    7.9246 H         1 <0>         0.0968 
      32 H10        8.1639    3.0402    7.8982 H         1 <0>         0.4034 
      33 H11        6.0597    2.4988    5.9717 H         1 <0>         0.0764 
      34 H12        6.2069    3.9560    6.9782 H         1 <0>         0.0833 
      35 H13        5.2500    2.7249    8.9008 H         1 <0>         0.0878 
      36 H14        5.1027    1.2676    7.8944 H         1 <0>         0.0899 
      37 H15        3.8420    3.1751    5.3305 H         1 <0>         0.0810 
      38 H16        3.4504    1.4933    5.7498 H         1 <0>         0.0967 
      39 H17        1.2770    2.1097    6.6094 H         1 <0>         0.1151 
      40 H18        1.3890    3.0586    5.1204 H         1 <0>         0.0972 
      41 H19        2.1686    5.0298    6.4566 H         1 <0>         0.1443 
      42 H20        0.7155    4.4262    7.2909 H         1 <0>         0.1447 
@<TRIPOS>BOND
       1        1        2 1        
       2        1       23 1        
       3        1       24 1        
       4        1       25 1        
       5        2        3 1        
       6        3        8 ar       
       7        3        4 ar       
       8        4        5 ar       
       9        4       26 1        
      10        5        6 ar       
      11        5       27 1        
      12        6        7 ar       
      13        6       28 1        
      14        7        8 ar       
      15        7        9 1        
      16        8       29 1        
      17        9       10 1        
      18       10       11 1        
      19       10       30 1        
      20       10       31 1        
      21       11       12 2        
      22       11       13 am       
      23       13       14 1        
      24       13       32 1        
      25       14       15 1        
      26       14       33 1        
      27       14       34 1        
      28       15       16 1        
      29       15       35 1        
      30       15       36 1        
      31       16       20 1        
      32       16       17 1        
      33       17       18 1        
      34       17       37 1        
      35       17       38 1        
      36       18       19 1        
      37       18       39 1        
      38       18       40 1        
      39       19       20 1        
      40       19       41 1        
      41       19       42 1        
      42       20       21 2        
      43       20       22 2        

