#        1GCZ_R01_S0001_C0000_L00014_S0001_C0007_G0010_E0001.mol2
#        Tue Jun  6 14:15:03 2017
#        Descriptor:     35    25    33    15     9    13
#        Energy - RMSD - RMSD MassCentre:     -49.6903    999.9999    999.9999
#        Receptor:       1  Surface Point:     1  Conformer:     0
#        Ligand:        14  Surface Point:     1  Conformer:     7
#        BUDE Formal Charge: 0
#        ATOM Count: 42
#        Heavy ATOM Count: 22
@<TRIPOS>MOLECULE
ZINC61597528_1GCZ_R01_S0001_C0000_L00014_S0001_C0007_G0010_E0001
 42 43 0 0 0
SMALL
USER_CHARGES
@<TRIPOS>ATOM
       1 C1        11.9454    2.8420    2.0155 C.3       1 <0>         0.0268 
       2 O1        11.2531    1.5908    2.0219 O.3       1 <0>        -0.3133 
       3 C2        11.0161    0.9937    3.2319 C.ar      1 <0>         0.1677 
       4 C3        11.1790   -0.3945    3.3085 C.ar      1 <0>        -0.2433 
       5 C4        10.9680   -1.0918    4.5012 C.ar      1 <0>        -0.0391 
       6 C5        10.5765   -0.3923    5.6490 C.ar      1 <0>        -0.2473 
       7 C6        10.3923    0.9939    5.5815 C.ar      1 <0>         0.1672 
       8 C7        10.6254    1.6834    4.3858 C.ar      1 <0>        -0.1836 
       9 O2         9.9802    1.6803    6.6932 O.3       1 <0>        -0.2863 
      10 C8         8.9768    1.0817    7.5176 C.3       1 <0>         0.0425 
      11 C9         7.7176    0.8790    6.7091 C.2       1 <0>         0.5165 
      12 O3         7.3577   -0.2568    6.4042 O.2       1 <0>        -0.5075 
      13 N1         6.9973    1.9296    6.3265 N.am      1 <0>        -0.7277 
      14 C10        5.7714    1.7323    5.5395 C.3       1 <0>         0.0923 
      15 C11        4.6992    1.0926    6.4202 C.3       1 <0>         0.1538 
      16 N2         3.4734    0.8953    5.6332 N.pl3     1 <0>        -0.9868 
      17 C12        3.4349    0.0881    4.4053 C.3       1 <0>         0.0701 
      18 C13        1.9274   -0.1239    4.1725 C.3       1 <0>        -0.1323 
      19 C14        1.2320    1.1968    4.5519 C.3       1 <0>        -0.5903 
      20 S1         1.9860    1.6001    6.1471 S.o2      1 <0>         2.5602 
      21 O4         1.4247    0.7899    7.1832 O.2       1 <0>        -0.9507 
      22 O5         2.1354    3.0153    6.2879 O.2       1 <0>        -0.9534 
      23 H1        12.9327    2.7117    2.4536 H         1 <0>         0.1028 
      24 H2        12.0460    3.1948    0.9914 H         1 <0>         0.0577 
      25 H3        11.3831    3.5698    2.5969 H         1 <0>         0.0578 
      26 H4        11.4736   -0.9360    2.4218 H         1 <0>         0.1309 
      27 H5        11.1036   -2.1626    4.5372 H         1 <0>         0.1300 
      28 H6        10.4172   -0.9147    6.5807 H         1 <0>         0.1298 
      29 H7        10.4857    2.7540    4.4157 H         1 <0>         0.1413 
      30 H8         8.7638    1.7337    8.3621 H         1 <0>         0.0972 
      31 H9         9.3320    0.1198    7.8816 H         1 <0>         0.0968 
      32 H10        7.2918    2.8628    6.5763 H         1 <0>         0.4034 
      33 H11        5.9830    1.0797    4.6950 H         1 <0>         0.0764 
      34 H12        5.4148    2.6936    5.1753 H         1 <0>         0.0833 
      35 H13        4.4862    1.7448    7.2647 H         1 <0>         0.0878 
      36 H14        5.0544    0.1309    6.7844 H         1 <0>         0.0899 
      37 H15        3.8789    0.6727    3.6022 H         1 <0>         0.0810 
      38 H16        3.9638   -0.8579    4.5011 H         1 <0>         0.0967 
      39 H17        1.5709   -0.9065    4.8387 H         1 <0>         0.1151 
      40 H18        1.7141   -0.4137    3.1457 H         1 <0>         0.0972 
      41 H19        1.4841    1.9822    3.8424 H         1 <0>         0.1443 
      42 H20        0.1510    1.1165    4.6457 H         1 <0>         0.1447 
@<TRIPOS>BOND
       1        1        2 1        
       2        1       23 1        
       3        1       24 1        
       4        1       25 1        
       5        2        3 1        
       6        3        8 ar       
       7        3        4 ar       
       8        4        5 ar       
       9        4       26 1        
      10        5        6 ar       
      11        5       27 1        
      12        6        7 ar       
      13        6       28 1        
      14        7        8 ar       
      15        7        9 1        
      16        8       29 1        
      17        9       10 1        
      18       10       11 1        
      19       10       30 1        
      20       10       31 1        
      21       11       12 2        
      22       11       13 am       
      23       13       14 1        
      24       13       32 1        
      25       14       15 1        
      26       14       33 1        
      27       14       34 1        
      28       15       16 1        
      29       15       35 1        
      30       15       36 1        
      31       16       20 1        
      32       16       17 1        
      33       17       18 1        
      34       17       37 1        
      35       17       38 1        
      36       18       19 1        
      37       18       39 1        
      38       18       40 1        
      39       19       20 1        
      40       19       41 1        
      41       19       42 1        
      42       20       21 2        
      43       20       22 2        

