#        1GCZ_R01_S0001_C0000_L00014_S0001_C0008_G0010_E0001.mol2
#        Tue Jun  6 09:59:31 2017
#        Descriptor:     25     5     9     7     8    13
#        Energy - RMSD - RMSD MassCentre:     -58.8727    999.9999    999.9999
#        Receptor:       1  Surface Point:     1  Conformer:     0
#        Ligand:        14  Surface Point:     1  Conformer:     8
#        BUDE Formal Charge: 0
#        ATOM Count: 42
#        Heavy ATOM Count: 22
@<TRIPOS>MOLECULE
ZINC61597528_1GCZ_R01_S0001_C0000_L00014_S0001_C0008_G0010_E0001
 42 43 0 0 0
SMALL
USER_CHARGES
@<TRIPOS>ATOM
       1 C1        -0.6441   -3.4364    0.8176 C.3       1 <0>         0.0268 
       2 O1        -0.2716   -2.3538   -0.0391 O.3       1 <0>        -0.3133 
       3 C2        -0.1391   -1.1095    0.5184 C.ar      1 <0>         0.1677 
       4 C3        -0.6266   -0.0201   -0.2133 C.ar      1 <0>        -0.2433 
       5 C4        -0.5438    1.2864    0.2760 C.ar      1 <0>        -0.0391 
       6 C5         0.0468    1.5194    1.5237 C.ar      1 <0>        -0.2473 
       7 C6         0.5547    0.4409    2.2576 C.ar      1 <0>         0.1672 
       8 C7         0.4486   -0.8653    1.7653 C.ar      1 <0>        -0.1836 
       9 O2         1.1607    0.6652    3.4656 O.3       1 <0>        -0.2863 
      10 C8         0.8929   -0.2506    4.5307 C.3       1 <0>         0.0425 
      11 C9        -0.5849   -0.2421    4.8409 C.2       1 <0>         0.5165 
      12 O3        -1.2773   -1.2208    4.5666 O.2       1 <0>        -0.5075 
      13 N1        -1.1382    0.8247    5.4109 N.am      1 <0>        -0.7277 
      14 C10       -2.5769    0.8330    5.7129 C.3       1 <0>         0.0923 
      15 C11       -2.8631   -0.1456    6.8509 C.3       1 <0>         0.1538 
      16 N2        -2.2550    0.3558    8.0917 N.pl3     1 <0>        -0.9868 
      17 C12       -3.0079    1.1182    9.0980 C.3       1 <0>         0.0701 
      18 C13       -1.9028    1.6768   10.0135 C.3       1 <0>        -0.1323 
      19 C14       -0.8414    0.5695   10.1509 C.3       1 <0>        -0.5903 
      20 S1        -0.5957    0.0384    8.4382 S.o2      1 <0>         2.5602 
      21 O4        -0.3423   -1.3679    8.3834 O.2       1 <0>        -0.9507 
      22 O5         0.2127    0.9828    7.7312 O.2       1 <0>        -0.9534 
      23 H1        -1.6166   -3.2303    1.2596 H         1 <0>         0.1028 
      24 H2        -0.6959   -4.3556    0.2379 H         1 <0>         0.0577 
      25 H3         0.0975   -3.5456    1.6062 H         1 <0>         0.0578 
      26 H4        -1.0756   -0.1981   -1.1793 H         1 <0>         0.1309 
      27 H5        -0.9305    2.1108   -0.3047 H         1 <0>         0.1300 
      28 H6         0.1113    2.5220    1.9200 H         1 <0>         0.1298 
      29 H7         0.8415   -1.6481    2.3970 H         1 <0>         0.1413 
      30 H8         1.4502    0.0484    5.4159 H         1 <0>         0.0972 
      31 H9         1.1945   -1.2526    4.2326 H         1 <0>         0.0968 
      32 H10       -0.5705    1.6290    5.6365 H         1 <0>         0.4034 
      33 H11       -3.1354    0.5332    4.8286 H         1 <0>         0.0764 
      34 H12       -2.8796    1.8343    6.0117 H         1 <0>         0.0833 
      35 H13       -2.4408   -1.1186    6.6082 H         1 <0>         0.0878 
      36 H14       -3.9383   -0.2399    6.9872 H         1 <0>         0.0899 
      37 H15       -3.5388    1.9192    8.5878 H         1 <0>         0.0810 
      38 H16       -3.7178    0.5070    9.6515 H         1 <0>         0.0967 
      39 H17       -2.3228    1.8775   10.9969 H         1 <0>         0.1151 
      40 H18       -1.4788    2.5979    9.6191 H         1 <0>         0.0972 
      41 H19        0.0954    0.9784   10.5236 H         1 <0>         0.1443 
      42 H20       -1.1528   -0.2670   10.7730 H         1 <0>         0.1447 
@<TRIPOS>BOND
       1        1        2 1        
       2        1       23 1        
       3        1       24 1        
       4        1       25 1        
       5        2        3 1        
       6        3        8 ar       
       7        3        4 ar       
       8        4        5 ar       
       9        4       26 1        
      10        5        6 ar       
      11        5       27 1        
      12        6        7 ar       
      13        6       28 1        
      14        7        8 ar       
      15        7        9 1        
      16        8       29 1        
      17        9       10 1        
      18       10       11 1        
      19       10       30 1        
      20       10       31 1        
      21       11       12 2        
      22       11       13 am       
      23       13       14 1        
      24       13       32 1        
      25       14       15 1        
      26       14       33 1        
      27       14       34 1        
      28       15       16 1        
      29       15       35 1        
      30       15       36 1        
      31       16       20 1        
      32       16       17 1        
      33       17       18 1        
      34       17       37 1        
      35       17       38 1        
      36       18       19 1        
      37       18       39 1        
      38       18       40 1        
      39       19       20 1        
      40       19       41 1        
      41       19       42 1        
      42       20       21 2        
      43       20       22 2        

