#        1GCZ_R01_S0001_C0000_L00014_S0001_C0008_G0010_E0001.mol2
#        Tue Jun  6 14:15:04 2017
#        Descriptor:     10    22    20    13     8    14
#        Energy - RMSD - RMSD MassCentre:     -48.7453    999.9999    999.9999
#        Receptor:       1  Surface Point:     1  Conformer:     0
#        Ligand:        14  Surface Point:     1  Conformer:     8
#        BUDE Formal Charge: 0
#        ATOM Count: 42
#        Heavy ATOM Count: 22
@<TRIPOS>MOLECULE
ZINC61597528_1GCZ_R01_S0001_C0000_L00014_S0001_C0008_G0010_E0001
 42 43 0 0 0
SMALL
USER_CHARGES
@<TRIPOS>ATOM
       1 C1         1.0627   -1.7313    9.3058 C.3       1 <0>         0.0268 
       2 O1         0.1312   -1.6793    8.2222 O.3       1 <0>        -0.3133 
       3 C2         0.6007   -1.3141    6.9882 C.ar      1 <0>         0.1677 
       4 C3        -0.2015   -0.4625    6.2194 C.ar      1 <0>        -0.2433 
       5 C4         0.1960   -0.0289    4.9517 C.ar      1 <0>        -0.0391 
       6 C5         1.4212   -0.4590    4.4284 C.ar      1 <0>        -0.2473 
       7 C6         2.2247   -1.3253    5.1792 C.ar      1 <0>         0.1672 
       8 C7         1.8244   -1.7372    6.4558 C.ar      1 <0>        -0.1836 
       9 O2         3.4108   -1.7738    4.6607 O.3       1 <0>        -0.2863 
      10 C8         4.5381   -1.8542    5.5368 C.3       1 <0>         0.0425 
      11 C9         4.8556   -0.4794    6.0746 C.2       1 <0>         0.5165 
      12 O3         4.6535   -0.2199    7.2597 O.2       1 <0>        -0.5075 
      13 N1         5.3538    0.4518    5.2659 N.am      1 <0>        -0.7277 
      14 C10        5.6628    1.7902    5.7895 C.3       1 <0>         0.0923 
      15 C11        6.8673    1.7043    6.7256 C.3       1 <0>         0.1538 
      16 N2         8.0671    1.3605    5.9489 N.pl3     1 <0>        -0.9868 
      17 C12        9.0226    2.3688    5.4685 C.3       1 <0>         0.0701 
      18 C13        9.8910    1.5810    4.4701 C.3       1 <0>        -0.1323 
      19 C14       10.0983    0.1799    5.0747 C.3       1 <0>        -0.5903 
      20 S1         8.4249   -0.2863    5.5829 S.o2      1 <0>         2.5602 
      21 O4         8.4659   -1.0595    6.7852 O.2       1 <0>        -0.9507 
      22 O5         7.6498   -0.6867    4.4498 O.2       1 <0>        -0.9534 
      23 H1         1.4951   -0.7448    9.4592 H         1 <0>         0.1028 
      24 H2         0.5481   -2.0472   10.2108 H         1 <0>         0.0577 
      25 H3         1.8526   -2.4415    9.0704 H         1 <0>         0.0578 
      26 H4        -1.1503   -0.1362    6.6191 H         1 <0>         0.1309 
      27 H5        -0.4381    0.6313    4.3785 H         1 <0>         0.1300 
      28 H6         1.7469   -0.1268    3.4538 H         1 <0>         0.1298 
      29 H7         2.5063   -2.3863    6.9849 H         1 <0>         0.1413 
      30 H8         5.3973   -2.2360    4.9895 H         1 <0>         0.0972 
      31 H9         4.3081   -2.5223    6.3642 H         1 <0>         0.0968 
      32 H10        5.5201    0.2398    4.2926 H         1 <0>         0.4034 
      33 H11        4.8046    2.1728    6.3380 H         1 <0>         0.0764 
      34 H12        5.8936    2.4591    4.9631 H         1 <0>         0.0833 
      35 H13        6.6899    0.9370    7.4765 H         1 <0>         0.0878 
      36 H14        7.0161    2.6643    7.2154 H         1 <0>         0.0899 
      37 H15        8.4615    3.1549    4.9674 H         1 <0>         0.0810 
      38 H16        9.6212    2.8024    6.2670 H         1 <0>         0.0967 
      39 H17       10.8606    2.0664    4.3812 H         1 <0>         0.1151 
      40 H18        9.4315    1.5333    3.4850 H         1 <0>         0.0972 
      41 H19       10.4364   -0.5212    4.3146 H         1 <0>         0.1443 
      42 H20       10.7784    0.1607    5.9237 H         1 <0>         0.1447 
@<TRIPOS>BOND
       1        1        2 1        
       2        1       23 1        
       3        1       24 1        
       4        1       25 1        
       5        2        3 1        
       6        3        8 ar       
       7        3        4 ar       
       8        4        5 ar       
       9        4       26 1        
      10        5        6 ar       
      11        5       27 1        
      12        6        7 ar       
      13        6       28 1        
      14        7        8 ar       
      15        7        9 1        
      16        8       29 1        
      17        9       10 1        
      18       10       11 1        
      19       10       30 1        
      20       10       31 1        
      21       11       12 2        
      22       11       13 am       
      23       13       14 1        
      24       13       32 1        
      25       14       15 1        
      26       14       33 1        
      27       14       34 1        
      28       15       16 1        
      29       15       35 1        
      30       15       36 1        
      31       16       20 1        
      32       16       17 1        
      33       17       18 1        
      34       17       37 1        
      35       17       38 1        
      36       18       19 1        
      37       18       39 1        
      38       18       40 1        
      39       19       20 1        
      40       19       41 1        
      41       19       42 1        
      42       20       21 2        
      43       20       22 2        

