#        1GCZ_R01_S0001_C0000_L00014_S0001_C0009_G0010_E0001.mol2
#        Tue Jun  6 09:59:31 2017
#        Descriptor:     25    27    32    10     7    13
#        Energy - RMSD - RMSD MassCentre:     -51.5655    999.9999    999.9999
#        Receptor:       1  Surface Point:     1  Conformer:     0
#        Ligand:        14  Surface Point:     1  Conformer:     9
#        BUDE Formal Charge: 0
#        ATOM Count: 42
#        Heavy ATOM Count: 22
@<TRIPOS>MOLECULE
ZINC61597528_1GCZ_R01_S0001_C0000_L00014_S0001_C0009_G0010_E0001
 42 43 0 0 0
SMALL
USER_CHARGES
@<TRIPOS>ATOM
       1 C1         2.2560   -5.9714    4.4273 C.3       1 <0>         0.0268 
       2 O1         3.6742   -5.8827    4.5872 O.3       1 <0>        -0.3133 
       3 C2         4.1777   -4.8083    5.2721 C.ar      1 <0>         0.1677 
       4 C3         5.2402   -5.0453    6.1521 C.ar      1 <0>        -0.2433 
       5 C4         5.8253   -4.0116    6.8887 C.ar      1 <0>        -0.0391 
       6 C5         5.3368   -2.7066    6.7540 C.ar      1 <0>        -0.2473 
       7 C6         4.2627   -2.4589    5.8910 C.ar      1 <0>         0.1672 
       8 C7         3.6976   -3.4995    5.1442 C.ar      1 <0>        -0.1836 
       9 O2         3.7602   -1.1894    5.7771 O.3       1 <0>        -0.2863 
      10 C8         3.6357   -0.4080    6.9682 C.3       1 <0>         0.0425 
      11 C9         3.0666    0.9474    6.6227 C.2       1 <0>         0.5165 
      12 O3         3.7736    1.9505    6.7016 O.2       1 <0>        -0.5075 
      13 N1         1.7996    1.0563    6.2329 N.am      1 <0>        -0.7277 
      14 C10        1.2454    2.3757    5.8965 C.3       1 <0>         0.0923 
      15 C11       -0.2175    2.2222    5.4828 C.3       1 <0>         0.1538 
      16 N2        -0.2916    1.4906    4.2100 N.pl3     1 <0>        -0.9868 
      17 C12        0.2405    2.0270    2.9491 C.3       1 <0>         0.0701 
      18 C13       -0.3469    1.0773    1.8887 C.3       1 <0>        -0.1323 
      19 C14       -0.3116   -0.3378    2.4952 C.3       1 <0>        -0.5903 
      20 S1        -1.0013   -0.0799    4.1486 S.o2      1 <0>         2.5602 
      21 O4        -0.3659   -0.9439    5.0945 O.2       1 <0>        -0.9507 
      22 O5        -2.4232    0.0579    4.0831 O.2       1 <0>        -0.9534 
      23 H1         1.8991   -5.1043    3.8755 H         1 <0>         0.1028 
      24 H2         2.0096   -6.8779    3.8785 H         1 <0>         0.0577 
      25 H3         1.7823   -5.9992    5.4063 H         1 <0>         0.0578 
      26 H4         5.6129   -6.0530    6.2624 H         1 <0>         0.1309 
      27 H5         6.6467   -4.2179    7.5588 H         1 <0>         0.1300 
      28 H6         5.7828   -1.8951    7.3098 H         1 <0>         0.1298 
      29 H7         2.8883   -3.2287    4.4824 H         1 <0>         0.1413 
      30 H8         4.6153   -0.2834    7.4250 H         1 <0>         0.0972 
      31 H9         2.9708   -0.9127    7.6660 H         1 <0>         0.0968 
      32 H10        1.2180    0.2331    6.1677 H         1 <0>         0.4034 
      33 H11        1.8109    2.8082    5.0738 H         1 <0>         0.0764 
      34 H12        1.3096    3.0286    6.7644 H         1 <0>         0.0833 
      35 H13       -0.6658    3.2062    5.3614 H         1 <0>         0.0878 
      36 H14       -0.7560    1.6697    6.2499 H         1 <0>         0.0899 
      37 H15       -0.1395    3.0389    2.8250 H         1 <0>         0.0810 
      38 H16        1.3280    2.0411    2.9179 H         1 <0>         0.0967 
      39 H17        0.2896    1.0914    1.0064 H         1 <0>         0.1151 
      40 H18       -1.3542    1.3690    1.5988 H         1 <0>         0.0972 
      41 H19       -0.9703   -1.0081    1.9469 H         1 <0>         0.1443 
      42 H20        0.6857   -0.7682    2.5564 H         1 <0>         0.1447 
@<TRIPOS>BOND
       1        1        2 1        
       2        1       23 1        
       3        1       24 1        
       4        1       25 1        
       5        2        3 1        
       6        3        8 ar       
       7        3        4 ar       
       8        4        5 ar       
       9        4       26 1        
      10        5        6 ar       
      11        5       27 1        
      12        6        7 ar       
      13        6       28 1        
      14        7        8 ar       
      15        7        9 1        
      16        8       29 1        
      17        9       10 1        
      18       10       11 1        
      19       10       30 1        
      20       10       31 1        
      21       11       12 2        
      22       11       13 am       
      23       13       14 1        
      24       13       32 1        
      25       14       15 1        
      26       14       33 1        
      27       14       34 1        
      28       15       16 1        
      29       15       35 1        
      30       15       36 1        
      31       16       20 1        
      32       16       17 1        
      33       17       18 1        
      34       17       37 1        
      35       17       38 1        
      36       18       19 1        
      37       18       39 1        
      38       18       40 1        
      39       19       20 1        
      40       19       41 1        
      41       19       42 1        
      42       20       21 2        
      43       20       22 2        

