#        1GCZ_R01_S0001_C0000_L00014_S0001_C0009_G0010_E0001.mol2
#        Tue Jun  6 14:15:06 2017
#        Descriptor:     15    28    18     9     6    14
#        Energy - RMSD - RMSD MassCentre:     -46.6051    999.9999    999.9999
#        Receptor:       1  Surface Point:     1  Conformer:     0
#        Ligand:        14  Surface Point:     1  Conformer:     9
#        BUDE Formal Charge: 0
#        ATOM Count: 42
#        Heavy ATOM Count: 22
@<TRIPOS>MOLECULE
ZINC61597528_1GCZ_R01_S0001_C0000_L00014_S0001_C0009_G0010_E0001
 42 43 0 0 0
SMALL
USER_CHARGES
@<TRIPOS>ATOM
       1 C1        -2.0533   -5.9729    5.9568 C.3       1 <0>         0.0268 
       2 O1        -0.8995   -6.8165    5.9158 O.3       1 <0>        -0.3133 
       3 C2         0.2794   -6.3171    6.4034 C.ar      1 <0>         0.1677 
       4 C3         1.0838   -7.1817    7.1551 C.ar      1 <0>        -0.2433 
       5 C4         2.3073   -6.7659    7.6873 C.ar      1 <0>        -0.0391 
       6 C5         2.7416   -5.4521    7.4740 C.ar      1 <0>        -0.2473 
       7 C6         1.9382   -4.5720    6.7393 C.ar      1 <0>         0.1672 
       8 C7         0.7235   -5.0059    6.1952 C.ar      1 <0>        -0.1836 
       9 O2         2.3429   -3.2765    6.5523 O.3       1 <0>        -0.2863 
      10 C8         2.9506   -2.5979    7.6546 C.3       1 <0>         0.0425 
      11 C9         3.3191   -1.1938    7.2388 C.2       1 <0>         0.5165 
      12 O3         4.5012   -0.8798    7.1105 O.2       1 <0>        -0.5075 
      13 N1         2.3646   -0.2960    7.0113 N.am      1 <0>        -0.7277 
      14 C10        2.7233    1.0709    6.6065 C.3       1 <0>         0.0923 
      15 C11        1.4507    1.8937    6.4108 C.3       1 <0>         0.1538 
      16 N2         0.7106    1.3809    5.2488 N.pl3     1 <0>        -0.9868 
      17 C12        1.2327    1.4498    3.8764 C.3       1 <0>         0.0701 
      18 C13        0.0042    1.0998    3.0163 C.3       1 <0>        -0.1323 
      19 C14       -0.7597   -0.0069    3.7668 C.3       1 <0>        -0.5903 
      20 S1        -0.8296    0.6340    5.4581 S.o2      1 <0>         2.5602 
      21 O4        -0.7330   -0.4363    6.4015 O.2       1 <0>        -0.9507 
      22 O5        -1.8264    1.6536    5.5673 O.2       1 <0>        -0.9534 
      23 H1        -1.8695   -5.0792    5.3641 H         1 <0>         0.1028 
      24 H2        -2.9083   -6.5089    5.5503 H         1 <0>         0.0577 
      25 H3        -2.2583   -5.6897    6.9871 H         1 <0>         0.0578 
      26 H4         0.7461   -8.1931    7.3266 H         1 <0>         0.1309 
      27 H5         2.9128   -7.4519    8.2610 H         1 <0>         0.1300 
      28 H6         3.6883   -5.1172    7.8714 H         1 <0>         0.1298 
      29 H7         0.1694   -4.2783    5.6209 H         1 <0>         0.1413 
      30 H8         3.8478   -3.1321    7.9603 H         1 <0>         0.0972 
      31 H9         2.2506   -2.5571    8.4866 H         1 <0>         0.0968 
      32 H10        1.3934   -0.5527    7.1163 H         1 <0>         0.4034 
      33 H11        3.2808    1.0388    5.6728 H         1 <0>         0.0764 
      34 H12        3.3357    1.5298    7.3798 H         1 <0>         0.0833 
      35 H13        1.7143    2.9357    6.2410 H         1 <0>         0.0878 
      36 H14        0.8279    1.8167    7.2995 H         1 <0>         0.0899 
      37 H15        1.5650    2.4693    3.6918 H         1 <0>         0.0810 
      38 H16        2.0566    0.7616    3.6995 H         1 <0>         0.0967 
      39 H17        0.3401    0.7016    2.0612 H         1 <0>         0.1151 
      40 H18       -0.6214    1.9707    2.8322 H         1 <0>         0.0972 
      41 H19       -1.7761   -0.0969    3.3893 H         1 <0>         0.1443 
      42 H20       -0.2691   -0.9776    3.7425 H         1 <0>         0.1447 
@<TRIPOS>BOND
       1        1        2 1        
       2        1       23 1        
       3        1       24 1        
       4        1       25 1        
       5        2        3 1        
       6        3        8 ar       
       7        3        4 ar       
       8        4        5 ar       
       9        4       26 1        
      10        5        6 ar       
      11        5       27 1        
      12        6        7 ar       
      13        6       28 1        
      14        7        8 ar       
      15        7        9 1        
      16        8       29 1        
      17        9       10 1        
      18       10       11 1        
      19       10       30 1        
      20       10       31 1        
      21       11       12 2        
      22       11       13 am       
      23       13       14 1        
      24       13       32 1        
      25       14       15 1        
      26       14       33 1        
      27       14       34 1        
      28       15       16 1        
      29       15       35 1        
      30       15       36 1        
      31       16       20 1        
      32       16       17 1        
      33       17       18 1        
      34       17       37 1        
      35       17       38 1        
      36       18       19 1        
      37       18       39 1        
      38       18       40 1        
      39       19       20 1        
      40       19       41 1        
      41       19       42 1        
      42       20       21 2        
      43       20       22 2        

