#        1GCZ_R01_S0001_C0000_L00003_S0001_C0024_G0010_E0001.mol2
#        Tue Jun  6 09:54:56 2017
#        Descriptor:     32    28     2    10     7    13
#        Energy - RMSD - RMSD MassCentre:     -58.6336    999.9999    999.9999
#        Receptor:       1  Surface Point:     1  Conformer:     0
#        Ligand:         3  Surface Point:     1  Conformer:    24
#        BUDE Formal Charge: 0
#        ATOM Count: 58
#        Heavy ATOM Count: 30
@<TRIPOS>MOLECULE
ZINC61580633_1GCZ_R01_S0001_C0000_L00003_S0001_C0024_G0010_E0001
 58 59 0 0 0
SMALL
USER_CHARGES
@<TRIPOS>ATOM
       1 C1         0.3453    0.9105   -1.5694 C.3       1 <0>        -0.1532 
       2 C2        -0.4389   -0.3069   -1.0883 C.3       1 <0>        -0.1224 
       3 C3        -0.7497   -0.1558    0.4001 C.3       1 <0>        -0.1198 
       4 C4         0.5578   -0.0672    1.1860 C.3       1 <0>         0.0610 
       5 O1         0.2668    0.0743    2.5790 O.3       1 <0>        -0.3878 
       6 C5         1.4567    0.1623    3.3674 C.3       1 <0>         0.0487 
       7 C6         1.0804    0.3116    4.8407 C.3       1 <0>         0.1244 
       8 N1         0.5370    1.6575    5.0729 N.am      1 <0>        -0.7216 
       9 C7         0.1407    2.0131    6.2917 C.2       1 <0>         0.5161 
      10 O2        -0.3142    3.1388    6.4873 O.2       1 <0>        -0.5151 
      11 C8         0.2494    1.0339    7.4361 C.3       1 <0>         0.0490 
      12 O3         1.6274    0.8328    7.7610 O.3       1 <0>        -0.3194 
      13 C9         2.3344    1.8934    8.2058 C.2       1 <0>         0.5417 
      14 O4         1.7957    2.9820    8.3201 O.2       1 <0>        -0.5337 
      15 C10        3.7638    1.7353    8.5549 C.2       1 <0>        -0.2559 
      16 C11        4.6329    2.8316    9.0376 C.2       1 <0>        -0.0791 
      17 C12        5.8837    2.4255    9.2675 C.2       1 <0>        -0.2585 
      18 S1         6.1151    0.7035    8.9306 S.3       1 <0>         0.3028 
      19 C13        4.4162    0.5693    8.4528 C.2       1 <0>         0.0893 
      20 N2         3.8025   -0.5740    8.0134 N.am      1 <0>        -0.6099 
      21 C14        4.4910   -1.7088    7.9285 C.2       1 <0>         0.5551 
      22 O5         5.6794   -1.7318    8.2447 O.2       1 <0>        -0.4939 
      23 C15        3.8265   -2.9430    7.4536 C.ar      1 <0>        -0.1466 
      24 C16        4.5895   -4.1143    7.3768 C.ar      1 <0>        -0.0772 
      25 C17        4.0372   -5.2950    6.8661 C.ar      1 <0>        -0.1241 
      26 C18        2.7132   -5.3235    6.4128 C.ar      1 <0>        -0.0446 
      27 C19        1.9321   -4.1684    6.5376 C.ar      1 <0>        -0.1261 
      28 C20        2.4796   -2.9978    7.0759 C.ar      1 <0>        -0.0460 
      29 C21        2.1552   -6.5897    5.8080 C.3       1 <0>        -0.0928 
      30 C22        2.3985   -6.5830    4.3016 C.3       1 <0>        -0.1485 
      31 H1         1.2815    0.9786   -1.0193 H         1 <0>         0.0567 
      32 H2        -0.2423    1.8100   -1.3992 H         1 <0>         0.0554 
      33 H3         0.5550    0.8091   -2.6322 H         1 <0>         0.0557 
      34 H4        -1.3696   -0.3834   -1.6466 H         1 <0>         0.0632 
      35 H5         0.1536   -1.2060   -1.2450 H         1 <0>         0.0635 
      36 H6        -1.3301    0.7502    0.5599 H         1 <0>         0.0711 
      37 H7        -1.3196   -1.0174    0.7415 H         1 <0>         0.0704 
      38 H8         1.1390   -0.9733    1.0277 H         1 <0>         0.0498 
      39 H9         1.1283    0.7946    0.8460 H         1 <0>         0.0505 
      40 H10        2.0379    1.0267    3.0529 H         1 <0>         0.0584 
      41 H11        2.0483   -0.7411    3.2345 H         1 <0>         0.0702 
      42 H12        1.9646    0.1668    5.4579 H         1 <0>         0.0872 
      43 H13        0.3299   -0.4317    5.1010 H         1 <0>         0.0805 
      44 H14        0.4642    2.3125    4.3075 H         1 <0>         0.4058 
      45 H15       -0.2731    1.4301    8.3041 H         1 <0>         0.1008 
      46 H16       -0.1962    0.0848    7.1457 H         1 <0>         0.0999 
      47 H17        4.2713    3.8376    9.1912 H         1 <0>         0.1557 
      48 H18        6.6558    3.0864    9.6326 H         1 <0>         0.1929 
      49 H19        2.8267   -0.5551    7.7538 H         1 <0>         0.4317 
      50 H20        5.6167   -4.1085    7.7102 H         1 <0>         0.1287 
      51 H21        4.6336   -6.1940    6.8175 H         1 <0>         0.1326 
      52 H22        0.9011   -4.1945    6.2168 H         1 <0>         0.1342 
      53 H23        1.8136   -2.1570    7.2023 H         1 <0>         0.1410 
      54 H24        1.0862   -6.6435    6.0032 H         1 <0>         0.0777 
      55 H25        2.6493   -7.4513    6.2521 H         1 <0>         0.0771 
      56 H26        3.4683   -6.5419    4.1079 H         1 <0>         0.0623 
      57 H27        1.9158   -5.7133    3.8607 H         1 <0>         0.0572 
      58 H28        1.9847   -7.4891    3.8641 H         1 <0>         0.0578 
@<TRIPOS>BOND
       1        1        2 1        
       2        1       31 1        
       3        1       32 1        
       4        1       33 1        
       5        2        3 1        
       6        2       34 1        
       7        2       35 1        
       8        3        4 1        
       9        3       36 1        
      10        3       37 1        
      11        4        5 1        
      12        4       38 1        
      13        4       39 1        
      14        5        6 1        
      15        6        7 1        
      16        6       40 1        
      17        6       41 1        
      18        7        8 1        
      19        7       42 1        
      20        7       43 1        
      21        8        9 am       
      22        8       44 1        
      23        9       10 2        
      24        9       11 1        
      25       11       12 1        
      26       11       45 1        
      27       11       46 1        
      28       12       13 1        
      29       13       14 2        
      30       13       15 1        
      31       15       19 2        
      32       15       16 1        
      33       16       17 2        
      34       16       47 1        
      35       17       18 1        
      36       17       48 1        
      37       18       19 1        
      38       19       20 1        
      39       20       21 am       
      40       20       49 1        
      41       21       22 2        
      42       21       23 1        
      43       23       28 ar       
      44       23       24 ar       
      45       24       25 ar       
      46       24       50 1        
      47       25       26 ar       
      48       25       51 1        
      49       26       27 ar       
      50       26       29 1        
      51       27       28 ar       
      52       27       52 1        
      53       28       53 1        
      54       29       30 1        
      55       29       54 1        
      56       29       55 1        
      57       30       56 1        
      58       30       57 1        
      59       30       58 1        

