#        1GCZ_R01_S0001_C0000_L00014_S0001_C0010_G0010_E0001.mol2
#        Tue Jun  6 09:59:32 2017
#        Descriptor:      6    35    21     8     9     9
#        Energy - RMSD - RMSD MassCentre:     -60.1151    999.9999    999.9999
#        Receptor:       1  Surface Point:     1  Conformer:     0
#        Ligand:        14  Surface Point:     1  Conformer:    10
#        BUDE Formal Charge: 0
#        ATOM Count: 42
#        Heavy ATOM Count: 22
@<TRIPOS>MOLECULE
ZINC61597528_1GCZ_R01_S0001_C0000_L00014_S0001_C0010_G0010_E0001
 42 43 0 0 0
SMALL
USER_CHARGES
@<TRIPOS>ATOM
       1 C1         3.8281    1.9329    4.1916 C.3       1 <0>         0.0268 
       2 O1         3.0078    1.7764    5.3523 O.3       1 <0>        -0.3133 
       3 C2         1.6863    1.4653    5.1680 C.ar      1 <0>         0.1677 
       4 C3         1.1165    0.5306    6.0407 C.ar      1 <0>        -0.2433 
       5 C4        -0.2258    0.1554    5.9367 C.ar      1 <0>        -0.0391 
       6 C5        -1.0234    0.7179    4.9331 C.ar      1 <0>        -0.2473 
       7 C6        -0.4612    1.6400    4.0424 C.ar      1 <0>         0.1672 
       8 C7         0.8796    2.0223    4.1688 C.ar      1 <0>        -0.1836 
       9 O2        -1.2283    2.1716    3.0394 O.3       1 <0>        -0.2863 
      10 C8        -2.1332    1.3019    2.3543 C.3       1 <0>         0.0425 
      11 C9        -1.3560    0.1913    1.6888 C.2       1 <0>         0.5165 
      12 O3        -1.4425   -0.9601    2.1121 O.2       1 <0>        -0.5075 
      13 N1        -0.5773    0.4587    0.6442 N.am      1 <0>        -0.7277 
      14 C10       -0.4738    1.8350    0.1383 C.3       1 <0>         0.0923 
      15 C11        0.4773    1.8671   -1.0571 C.3       1 <0>         0.1538 
      16 N2        -0.1263    1.1384   -2.1821 N.pl3     1 <0>        -0.9868 
      17 C12       -1.4240    1.5061   -2.7665 C.3       1 <0>         0.0701 
      18 C13       -1.4422    0.7291   -4.0960 C.3       1 <0>        -0.1323 
      19 C14       -0.7966   -0.6408   -3.8158 C.3       1 <0>        -0.5903 
      20 S1         0.6984   -0.1962   -2.8975 S.o2      1 <0>         2.5602 
      21 O4         1.7004    0.3030   -3.7873 O.2       1 <0>        -0.9507 
      22 O5         0.9895   -1.1836   -1.9048 O.2       1 <0>        -0.9534 
      23 H1         3.4392    2.7446    3.5802 H         1 <0>         0.1028 
      24 H2         4.8466    2.1637    4.4966 H         1 <0>         0.0577 
      25 H3         3.8216    1.0095    3.6164 H         1 <0>         0.0578 
      26 H4         1.7330    0.0905    6.8106 H         1 <0>         0.1309 
      27 H5        -0.6444   -0.5649    6.6239 H         1 <0>         0.1300 
      28 H6        -2.0645    0.4449    4.8440 H         1 <0>         0.1298 
      29 H7         1.2369    2.7554    3.4608 H         1 <0>         0.1413 
      30 H8        -2.6776    1.8655    1.5995 H         1 <0>         0.0972 
      31 H9        -2.8364    0.8753    3.0666 H         1 <0>         0.0968 
      32 H10       -0.0570   -0.2833    0.1984 H         1 <0>         0.4034 
      33 H11       -0.0903    2.4829    0.9237 H         1 <0>         0.0764 
      34 H12       -1.4570    2.1828   -0.1719 H         1 <0>         0.0833 
      35 H13        1.4194    1.3961   -0.7843 H         1 <0>         0.0878 
      36 H14        0.6584    2.8992   -1.3497 H         1 <0>         0.0899 
      37 H15       -2.2074    1.1583   -2.0965 H         1 <0>         0.0810 
      38 H16       -1.5310    2.5771   -2.9254 H         1 <0>         0.0967 
      39 H17       -0.8312    1.2568   -4.8252 H         1 <0>         0.1151 
      40 H18       -2.4509    0.6284   -4.4912 H         1 <0>         0.0972 
      41 H19       -1.4333   -1.2412   -3.1693 H         1 <0>         0.1443 
      42 H20       -0.5453   -1.2031   -4.7126 H         1 <0>         0.1447 
@<TRIPOS>BOND
       1        1        2 1        
       2        1       23 1        
       3        1       24 1        
       4        1       25 1        
       5        2        3 1        
       6        3        8 ar       
       7        3        4 ar       
       8        4        5 ar       
       9        4       26 1        
      10        5        6 ar       
      11        5       27 1        
      12        6        7 ar       
      13        6       28 1        
      14        7        8 ar       
      15        7        9 1        
      16        8       29 1        
      17        9       10 1        
      18       10       11 1        
      19       10       30 1        
      20       10       31 1        
      21       11       12 2        
      22       11       13 am       
      23       13       14 1        
      24       13       32 1        
      25       14       15 1        
      26       14       33 1        
      27       14       34 1        
      28       15       16 1        
      29       15       35 1        
      30       15       36 1        
      31       16       20 1        
      32       16       17 1        
      33       17       18 1        
      34       17       37 1        
      35       17       38 1        
      36       18       19 1        
      37       18       39 1        
      38       18       40 1        
      39       19       20 1        
      40       19       41 1        
      41       19       42 1        
      42       20       21 2        
      43       20       22 2        

