#        1GCZ_R01_S0001_C0000_L00014_S0001_C0010_G0010_E0001.mol2
#        Tue Jun  6 14:15:08 2017
#        Descriptor:     36    22    13    11     9    14
#        Energy - RMSD - RMSD MassCentre:     -45.4132    999.9999    999.9999
#        Receptor:       1  Surface Point:     1  Conformer:     0
#        Ligand:        14  Surface Point:     1  Conformer:    10
#        BUDE Formal Charge: 0
#        ATOM Count: 42
#        Heavy ATOM Count: 22
@<TRIPOS>MOLECULE
ZINC61597528_1GCZ_R01_S0001_C0000_L00014_S0001_C0010_G0010_E0001
 42 43 0 0 0
SMALL
USER_CHARGES
@<TRIPOS>ATOM
       1 C1        -1.2979    1.9116    8.5316 C.3       1 <0>         0.0268 
       2 O1        -2.1213    1.3820    7.4894 O.3       1 <0>        -0.3133 
       3 C2        -1.5038    0.8908    6.3694 C.ar      1 <0>         0.1677 
       4 C3        -2.0186   -0.2864    5.8135 C.ar      1 <0>        -0.2433 
       5 C4        -1.4612   -0.8593    4.6671 C.ar      1 <0>        -0.0391 
       6 C5        -0.3564   -0.2509    4.0594 C.ar      1 <0>        -0.2473 
       7 C6         0.1795    0.9166    4.6157 C.ar      1 <0>         0.1672 
       8 C7        -0.3997    1.4915    5.7532 C.ar      1 <0>        -0.1836 
       9 O2         1.2789    1.5004    4.0435 O.3       1 <0>        -0.2863 
      10 C8         2.3237    0.6453    3.5725 C.3       1 <0>         0.0425 
      11 C9         2.8775   -0.1545    4.7275 C.2       1 <0>         0.5165 
      12 O3         2.6717   -1.3653    4.7928 O.2       1 <0>        -0.5075 
      13 N1         3.5880    0.4509    5.6749 N.am      1 <0>        -0.7277 
      14 C10        3.8338    1.8981    5.5969 C.3       1 <0>         0.0923 
      15 C11        4.6685    2.3375    6.7989 C.3       1 <0>         0.1538 
      16 N2         6.0165    1.7602    6.6956 N.pl3     1 <0>        -0.9868 
      17 C12        6.9054    2.0087    5.5516 C.3       1 <0>         0.0701 
      18 C13        8.2764    1.5279    6.0622 C.3       1 <0>        -0.1323 
      19 C14        8.0163    0.2627    6.9009 C.3       1 <0>        -0.5903 
      20 S1         6.6354    0.7629    7.9587 S.o2      1 <0>         2.5602 
      21 O4         7.0991    1.5989    9.0222 O.2       1 <0>        -0.9507 
      22 O5         5.7554   -0.3404    8.1899 O.2       1 <0>        -0.9534 
      23 H1        -0.7222    2.7509    8.1469 H         1 <0>         0.1028 
      24 H2        -1.9260    2.2482    9.3536 H         1 <0>         0.0577 
      25 H3        -0.6198    1.1379    8.8858 H         1 <0>         0.0578 
      26 H4        -2.8662   -0.7605    6.2860 H         1 <0>         0.1309 
      27 H5        -1.8779   -1.7660    4.2539 H         1 <0>         0.1300 
      28 H6         0.0813   -0.6762    3.1683 H         1 <0>         0.1298 
      29 H7         0.0533    2.4040    6.1116 H         1 <0>         0.1413 
      30 H8         3.1174    1.2478    3.1359 H         1 <0>         0.0972 
      31 H9         1.9266   -0.0329    2.8200 H         1 <0>         0.0968 
      32 H10        3.9587   -0.0830    6.4479 H         1 <0>         0.4034 
      33 H11        2.8840    2.4287    5.6023 H         1 <0>         0.0764 
      34 H12        4.3722    2.1262    4.6794 H         1 <0>         0.0833 
      35 H13        4.1956    1.9913    7.7156 H         1 <0>         0.0878 
      36 H14        4.7398    3.4231    6.8144 H         1 <0>         0.0899 
      37 H15        6.5609    1.4013    4.7173 H         1 <0>         0.0810 
      38 H16        6.9319    3.0546    5.2527 H         1 <0>         0.0967 
      39 H17        8.7026    2.2909    6.7101 H         1 <0>         0.1151 
      40 H18        8.9677    1.3367    5.2441 H         1 <0>         0.0972 
      41 H19        7.6863   -0.5580    6.2673 H         1 <0>         0.1443 
      42 H20        8.8672   -0.0528    7.5011 H         1 <0>         0.1447 
@<TRIPOS>BOND
       1        1        2 1        
       2        1       23 1        
       3        1       24 1        
       4        1       25 1        
       5        2        3 1        
       6        3        8 ar       
       7        3        4 ar       
       8        4        5 ar       
       9        4       26 1        
      10        5        6 ar       
      11        5       27 1        
      12        6        7 ar       
      13        6       28 1        
      14        7        8 ar       
      15        7        9 1        
      16        8       29 1        
      17        9       10 1        
      18       10       11 1        
      19       10       30 1        
      20       10       31 1        
      21       11       12 2        
      22       11       13 am       
      23       13       14 1        
      24       13       32 1        
      25       14       15 1        
      26       14       33 1        
      27       14       34 1        
      28       15       16 1        
      29       15       35 1        
      30       15       36 1        
      31       16       20 1        
      32       16       17 1        
      33       17       18 1        
      34       17       37 1        
      35       17       38 1        
      36       18       19 1        
      37       18       39 1        
      38       18       40 1        
      39       19       20 1        
      40       19       41 1        
      41       19       42 1        
      42       20       21 2        
      43       20       22 2        

