#        1GCZ_R01_S0001_C0000_L00014_S0001_C0011_G0010_E0001.mol2
#        Tue Jun  6 09:59:33 2017
#        Descriptor:     22    25    34     8     9    13
#        Energy - RMSD - RMSD MassCentre:     -54.2459    999.9999    999.9999
#        Receptor:       1  Surface Point:     1  Conformer:     0
#        Ligand:        14  Surface Point:     1  Conformer:    11
#        BUDE Formal Charge: 0
#        ATOM Count: 42
#        Heavy ATOM Count: 22
@<TRIPOS>MOLECULE
ZINC61597528_1GCZ_R01_S0001_C0000_L00014_S0001_C0011_G0010_E0001
 42 43 0 0 0
SMALL
USER_CHARGES
@<TRIPOS>ATOM
       1 C1        -2.3026   -0.7255    9.2265 C.3       1 <0>         0.0268 
       2 O1        -1.2907   -0.1887   10.0827 O.3       1 <0>        -0.3133 
       3 C2        -0.2245    0.4434    9.4994 C.ar      1 <0>         0.1677 
       4 C3         1.0424    0.2087   10.0471 C.ar      1 <0>        -0.2433 
       5 C4         2.1910    0.8021    9.5161 C.ar      1 <0>        -0.0391 
       6 C5         2.0783    1.6591    8.4149 C.ar      1 <0>        -0.2473 
       7 C6         0.8152    1.9166    7.8689 C.ar      1 <0>         0.1672 
       8 C7        -0.3256    1.3011    8.3977 C.ar      1 <0>        -0.1836 
       9 O2         0.6943    2.7777    6.8102 O.3       1 <0>        -0.2863 
      10 C8         1.6823    2.7147    5.7782 C.3       1 <0>         0.0425 
      11 C9         1.6682    1.3405    5.1524 C.2       1 <0>         0.5165 
      12 O3         2.6098    0.5710    5.3354 O.2       1 <0>        -0.5075 
      13 N1         0.6367    0.9622    4.4027 N.am      1 <0>        -0.7277 
      14 C10       -0.4889    1.8822    4.1840 C.3       1 <0>         0.0923 
      15 C11       -1.5318    1.2071    3.2945 C.3       1 <0>         0.1538 
      16 N2        -0.9786    1.0237    1.9449 N.pl3     1 <0>        -0.9868 
      17 C12       -0.8996    2.1123    0.9603 C.3       1 <0>         0.0701 
      18 C13        0.0585    1.5508   -0.1066 C.3       1 <0>        -0.1323 
      19 C14       -0.2769    0.0553   -0.2582 C.3       1 <0>        -0.5903 
      20 S1        -0.3593   -0.5105    1.4591 S.o2      1 <0>         2.5602 
      21 O4         0.9567   -0.6685    1.9959 O.2       1 <0>        -0.9507 
      22 O5        -1.3651   -1.5162    1.6081 O.2       1 <0>        -0.9534 
      23 H1        -1.8633   -1.4771    8.5739 H         1 <0>         0.1028 
      24 H2        -3.0839   -1.1812    9.8309 H         1 <0>         0.0577 
      25 H3        -2.7289    0.0741    8.6244 H         1 <0>         0.0578 
      26 H4         1.1294   -0.4463   10.9013 H         1 <0>         0.1309 
      27 H5         3.1583    0.6030    9.9532 H         1 <0>         0.1300 
      28 H6         2.9568    2.1194    7.9874 H         1 <0>         0.1298 
      29 H7        -1.2619    1.5292    7.9101 H         1 <0>         0.1413 
      30 H8         2.6647    2.9089    6.2034 H         1 <0>         0.0972 
      31 H9         1.4614    3.4611    5.0179 H         1 <0>         0.0968 
      32 H10        0.6262    0.0434    3.9836 H         1 <0>         0.4034 
      33 H11       -0.1295    2.7868    3.6980 H         1 <0>         0.0764 
      34 H12       -0.9400    2.1382    5.1404 H         1 <0>         0.0833 
      35 H13       -2.4211    1.8315    3.2394 H         1 <0>         0.0878 
      36 H14       -1.7937    0.2377    3.7132 H         1 <0>         0.0899 
      37 H15       -1.8951    2.2710    0.5510 H         1 <0>         0.0810 
      38 H16       -0.5284    3.0432    1.3840 H         1 <0>         0.0967 
      39 H17        1.0820    1.6412    0.2509 H         1 <0>         0.1151 
      40 H18       -0.0313    2.0839   -1.0509 H         1 <0>         0.0972 
      41 H19       -1.2571   -0.0752   -0.7122 H         1 <0>         0.1443 
      42 H20        0.4668   -0.5106   -0.8153 H         1 <0>         0.1447 
@<TRIPOS>BOND
       1        1        2 1        
       2        1       23 1        
       3        1       24 1        
       4        1       25 1        
       5        2        3 1        
       6        3        8 ar       
       7        3        4 ar       
       8        4        5 ar       
       9        4       26 1        
      10        5        6 ar       
      11        5       27 1        
      12        6        7 ar       
      13        6       28 1        
      14        7        8 ar       
      15        7        9 1        
      16        8       29 1        
      17        9       10 1        
      18       10       11 1        
      19       10       30 1        
      20       10       31 1        
      21       11       12 2        
      22       11       13 am       
      23       13       14 1        
      24       13       32 1        
      25       14       15 1        
      26       14       33 1        
      27       14       34 1        
      28       15       16 1        
      29       15       35 1        
      30       15       36 1        
      31       16       20 1        
      32       16       17 1        
      33       17       18 1        
      34       17       37 1        
      35       17       38 1        
      36       18       19 1        
      37       18       39 1        
      38       18       40 1        
      39       19       20 1        
      40       19       41 1        
      41       19       42 1        
      42       20       21 2        
      43       20       22 2        

