#        1GCZ_R01_S0001_C0000_L00014_S0001_C0011_G0010_E0001.mol2
#        Tue Jun  6 14:15:09 2017
#        Descriptor:     27     1     1    11     9    13
#        Energy - RMSD - RMSD MassCentre:     -53.1406    999.9999    999.9999
#        Receptor:       1  Surface Point:     1  Conformer:     0
#        Ligand:        14  Surface Point:     1  Conformer:    11
#        BUDE Formal Charge: 0
#        ATOM Count: 42
#        Heavy ATOM Count: 22
@<TRIPOS>MOLECULE
ZINC61597528_1GCZ_R01_S0001_C0000_L00014_S0001_C0011_G0010_E0001
 42 43 0 0 0
SMALL
USER_CHARGES
@<TRIPOS>ATOM
       1 C1         0.1870    1.2063    0.7354 C.3       1 <0>         0.0268 
       2 O1        -1.0442    1.2112    1.4627 O.3       1 <0>        -0.3133 
       3 C2        -0.9842    1.1180    2.8281 C.ar      1 <0>         0.1677 
       4 C3        -1.9332    0.3064    3.4611 C.ar      1 <0>        -0.2433 
       5 C4        -1.9474    0.1425    4.8490 C.ar      1 <0>        -0.0391 
       6 C5        -0.9974    0.8092    5.6319 C.ar      1 <0>        -0.2473 
       7 C6        -0.0542    1.6381    5.0131 C.ar      1 <0>         0.1672 
       8 C7        -0.0382    1.7792    3.6205 C.ar      1 <0>        -0.1836 
       9 O2         0.8593    2.3170    5.7759 O.3       1 <0>        -0.2863 
      10 C8         1.4458    1.6334    6.8866 C.3       1 <0>         0.0425 
      11 C9         2.1940    0.4190    6.3910 C.2       1 <0>         0.5165 
      12 O3         1.7672   -0.7085    6.6337 O.2       1 <0>        -0.5075 
      13 N1         3.3153    0.5689    5.6915 N.am      1 <0>        -0.7277 
      14 C10        3.8255    1.9168    5.4015 C.3       1 <0>         0.0923 
      15 C11        5.1159    1.8083    4.5905 C.3       1 <0>         0.1538 
      16 N2         6.1718    1.2206    5.4276 N.pl3     1 <0>        -0.9868 
      17 C12        6.9146    1.9928    6.4339 C.3       1 <0>         0.0701 
      18 C13        7.6053    0.9018    7.2730 C.3       1 <0>        -0.1323 
      19 C14        8.0525   -0.1952    6.2890 C.3       1 <0>        -0.5903 
      20 S1         6.5738   -0.4493    5.2767 S.o2      1 <0>         2.5602 
      21 O4         5.6070   -1.2236    5.9915 O.2       1 <0>        -0.9507 
      22 O5         6.9358   -0.7478    3.9258 O.2       1 <0>        -0.9534 
      23 H1         0.7142    0.2731    0.9223 H         1 <0>         0.1028 
      24 H2        -0.0206    1.2993   -0.3285 H         1 <0>         0.0577 
      25 H3         0.8025    2.0427    1.0599 H         1 <0>         0.0578 
      26 H4        -2.6712   -0.2023    2.8586 H         1 <0>         0.1309 
      27 H5        -2.6870   -0.4920    5.3147 H         1 <0>         0.1300 
      28 H6        -0.9894    0.6869    6.7049 H         1 <0>         0.1298 
      29 H7         0.7327    2.4163    3.2128 H         1 <0>         0.1413 
      30 H8         0.6636    1.3208    7.5751 H         1 <0>         0.0972 
      31 H9         2.1364    2.2997    7.3996 H         1 <0>         0.0968 
      32 H10        3.8166   -0.2426    5.3596 H         1 <0>         0.4034 
      33 H11        4.0274    2.4374    6.3352 H         1 <0>         0.0764 
      34 H12        3.0839    2.4706    4.8296 H         1 <0>         0.0833 
      35 H13        5.4232    2.7992    4.2627 H         1 <0>         0.0878 
      36 H14        4.9472    1.1745    3.7224 H         1 <0>         0.0899 
      37 H15        7.6440    2.6112    5.9150 H         1 <0>         0.0810 
      38 H16        6.2727    2.6240    7.0450 H         1 <0>         0.0967 
      39 H17        6.8825    0.4731    7.9639 H         1 <0>         0.1151 
      40 H18        8.4418    1.3000    7.8435 H         1 <0>         0.0972 
      41 H19        8.8527    0.1668    5.6467 H         1 <0>         0.1443 
      42 H20        8.3553   -1.1234    6.7691 H         1 <0>         0.1447 
@<TRIPOS>BOND
       1        1        2 1        
       2        1       23 1        
       3        1       24 1        
       4        1       25 1        
       5        2        3 1        
       6        3        8 ar       
       7        3        4 ar       
       8        4        5 ar       
       9        4       26 1        
      10        5        6 ar       
      11        5       27 1        
      12        6        7 ar       
      13        6       28 1        
      14        7        8 ar       
      15        7        9 1        
      16        8       29 1        
      17        9       10 1        
      18       10       11 1        
      19       10       30 1        
      20       10       31 1        
      21       11       12 2        
      22       11       13 am       
      23       13       14 1        
      24       13       32 1        
      25       14       15 1        
      26       14       33 1        
      27       14       34 1        
      28       15       16 1        
      29       15       35 1        
      30       15       36 1        
      31       16       20 1        
      32       16       17 1        
      33       17       18 1        
      34       17       37 1        
      35       17       38 1        
      36       18       19 1        
      37       18       39 1        
      38       18       40 1        
      39       19       20 1        
      40       19       41 1        
      41       19       42 1        
      42       20       21 2        
      43       20       22 2        

