#        1GCZ_R01_S0001_C0000_L00014_S0001_C0012_G0010_E0001.mol2
#        Tue Jun  6 09:59:34 2017
#        Descriptor:     17    10    30    10    10    15
#        Energy - RMSD - RMSD MassCentre:     -43.9704    999.9999    999.9999
#        Receptor:       1  Surface Point:     1  Conformer:     0
#        Ligand:        14  Surface Point:     1  Conformer:    12
#        BUDE Formal Charge: 0
#        ATOM Count: 42
#        Heavy ATOM Count: 22
@<TRIPOS>MOLECULE
ZINC61597528_1GCZ_R01_S0001_C0000_L00014_S0001_C0012_G0010_E0001
 42 43 0 0 0
SMALL
USER_CHARGES
@<TRIPOS>ATOM
       1 C1        -1.7372    0.4457    5.8608 C.3       1 <0>         0.0268 
       2 O1        -1.2014   -0.8771    5.9507 O.3       1 <0>        -0.3133 
       3 C2         0.1524   -1.0330    5.8113 C.ar      1 <0>         0.1677 
       4 C3         0.7866   -1.9483    6.6597 C.ar      1 <0>        -0.2433 
       5 C4         2.1627   -2.1815    6.5876 C.ar      1 <0>        -0.0391 
       6 C5         2.9329   -1.4807    5.6519 C.ar      1 <0>        -0.2473 
       7 C6         2.3141   -0.5491    4.8098 C.ar      1 <0>         0.1672 
       8 C7         0.9318   -0.3383    4.8787 C.ar      1 <0>        -0.1836 
       9 O2         3.0666    0.1620    3.9125 O.3       1 <0>        -0.2863 
      10 C8         4.3426    0.6448    4.3410 C.3       1 <0>         0.0425 
      11 C9         4.1580    1.5840    5.5090 C.2       1 <0>         0.5165 
      12 O3         4.5264    1.2482    6.6332 O.2       1 <0>        -0.5075 
      13 N1         3.5966    2.7750    5.3217 N.am      1 <0>        -0.7277 
      14 C10        3.4170    3.6893    6.4587 C.3       1 <0>         0.0923 
      15 C11        2.3451    3.1325    7.3944 C.3       1 <0>         0.1538 
      16 N2         2.1655    4.0467    8.5314 N.pl3     1 <0>        -0.9868 
      17 C12        2.5826    3.7095    9.9001 C.3       1 <0>         0.0701 
      18 C13        1.9116    4.8040   10.7505 C.3       1 <0>        -0.1323 
      19 C14        2.0087    6.1120    9.9435 C.3       1 <0>        -0.5903 
      20 S1         1.4635    5.6039    8.2941 S.o2      1 <0>         2.5602 
      21 O4         2.1843    6.3200    7.2878 O.2       1 <0>        -0.9507 
      22 O5         0.0404    5.4681    8.2559 O.2       1 <0>        -0.9534 
      23 H1        -1.5141    0.8607    4.8801 H         1 <0>         0.1028 
      24 H2        -2.8151    0.4102    6.0036 H         1 <0>         0.0577 
      25 H3        -1.2891    1.0708    6.6303 H         1 <0>         0.0578 
      26 H4         0.1945   -2.4838    7.3870 H         1 <0>         0.1309 
      27 H5         2.6293   -2.8955    7.2500 H         1 <0>         0.1300 
      28 H6         3.9960   -1.6550    5.5775 H         1 <0>         0.1298 
      29 H7         0.5217    0.3780    4.1822 H         1 <0>         0.1413 
      30 H8         4.8239    1.1755    3.5222 H         1 <0>         0.0972 
      31 H9         4.9646   -0.1942    4.6458 H         1 <0>         0.0968 
      32 H10        3.2937    3.0518    4.3988 H         1 <0>         0.4034 
      33 H11        3.1069    4.6663    6.0938 H         1 <0>         0.0764 
      34 H12        4.3560    3.7847    7.0000 H         1 <0>         0.0833 
      35 H13        2.6544    2.1557    7.7607 H         1 <0>         0.0878 
      36 H14        1.4053    3.0372    6.8546 H         1 <0>         0.0899 
      37 H15        2.1866    2.7253   10.1415 H         1 <0>         0.0810 
      38 H16        3.6631    3.7074   10.0273 H         1 <0>         0.0967 
      39 H17        2.4689    4.9269   11.6768 H         1 <0>         0.1151 
      40 H18        0.8811    4.5526   10.9924 H         1 <0>         0.0972 
      41 H19        1.3093    6.8528   10.3255 H         1 <0>         0.1443 
      42 H20        3.0104    6.5349    9.9051 H         1 <0>         0.1447 
@<TRIPOS>BOND
       1        1        2 1        
       2        1       23 1        
       3        1       24 1        
       4        1       25 1        
       5        2        3 1        
       6        3        8 ar       
       7        3        4 ar       
       8        4        5 ar       
       9        4       26 1        
      10        5        6 ar       
      11        5       27 1        
      12        6        7 ar       
      13        6       28 1        
      14        7        8 ar       
      15        7        9 1        
      16        8       29 1        
      17        9       10 1        
      18       10       11 1        
      19       10       30 1        
      20       10       31 1        
      21       11       12 2        
      22       11       13 am       
      23       13       14 1        
      24       13       32 1        
      25       14       15 1        
      26       14       33 1        
      27       14       34 1        
      28       15       16 1        
      29       15       35 1        
      30       15       36 1        
      31       16       20 1        
      32       16       17 1        
      33       17       18 1        
      34       17       37 1        
      35       17       38 1        
      36       18       19 1        
      37       18       39 1        
      38       18       40 1        
      39       19       20 1        
      40       19       41 1        
      41       19       42 1        
      42       20       21 2        
      43       20       22 2        

