#        1GCZ_R01_S0001_C0000_L00014_S0001_C0012_G0010_E0001.mol2
#        Tue Jun  6 14:15:11 2017
#        Descriptor:     17    36     5     9    10    15
#        Energy - RMSD - RMSD MassCentre:     -43.9161    999.9999    999.9999
#        Receptor:       1  Surface Point:     1  Conformer:     0
#        Ligand:        14  Surface Point:     1  Conformer:    12
#        BUDE Formal Charge: 0
#        ATOM Count: 42
#        Heavy ATOM Count: 22
@<TRIPOS>MOLECULE
ZINC61597528_1GCZ_R01_S0001_C0000_L00014_S0001_C0012_G0010_E0001
 42 43 0 0 0
SMALL
USER_CHARGES
@<TRIPOS>ATOM
       1 C1         3.4118   -1.3699    7.7124 C.3       1 <0>         0.0268 
       2 O1         3.4622   -1.6170    6.3048 O.3       1 <0>        -0.3133 
       3 C2         2.4449   -1.1265    5.5294 C.ar      1 <0>         0.1677 
       4 C3         2.7879   -0.5753    4.2892 C.ar      1 <0>        -0.2433 
       5 C4         1.8193   -0.0570    3.4253 C.ar      1 <0>        -0.0391 
       6 C5         0.4724   -0.0795    3.8062 C.ar      1 <0>        -0.2473 
       7 C6         0.1177   -0.6113    5.0516 C.ar      1 <0>         0.1672 
       8 C7         1.0950   -1.1448    5.9000 C.ar      1 <0>        -0.1836 
       9 O2        -1.1952   -0.6089    5.4433 O.3       1 <0>        -0.2863 
      10 C8        -1.9799    0.5506    5.1524 C.3       1 <0>         0.0425 
      11 C9        -1.3768    1.7513    5.8415 C.2       1 <0>         0.5165 
      12 O3        -0.8339    2.6334    5.1785 O.2       1 <0>        -0.5075 
      13 N1        -1.4326    1.8548    7.1662 N.am      1 <0>        -0.7277 
      14 C10       -0.8456    3.0237    7.8370 C.3       1 <0>         0.0923 
      15 C11        0.6772    2.9611    7.7274 C.3       1 <0>         0.1538 
      16 N2         1.2643    4.1301    8.3981 N.pl3     1 <0>        -0.9868 
      17 C12        1.9273    5.2197    7.6675 C.3       1 <0>         0.0701 
      18 C13        2.6348    6.0103    8.7837 C.3       1 <0>        -0.1323 
      19 C14        1.6795    6.0201    9.9916 C.3       1 <0>        -0.5903 
      20 S1         1.1731    4.2867   10.1131 S.o2      1 <0>         2.5602 
      21 O4        -0.1874    4.1935   10.5436 O.2       1 <0>        -0.9507 
      22 O5         2.2113    3.5011   10.7047 O.2       1 <0>        -0.9534 
      23 H1         2.5117   -1.8191    8.1268 H         1 <0>         0.1028 
      24 H2         4.2876   -1.8060    8.1881 H         1 <0>         0.0577 
      25 H3         3.3976   -0.2968    7.8912 H         1 <0>         0.0578 
      26 H4         3.8275   -0.5507    3.9977 H         1 <0>         0.1309 
      27 H5         2.1075    0.3597    2.4715 H         1 <0>         0.1300 
      28 H6        -0.2894    0.3095    3.1469 H         1 <0>         0.1298 
      29 H7         0.7439   -1.5585    6.8338 H         1 <0>         0.1413 
      30 H8        -2.9964    0.4005    5.5102 H         1 <0>         0.0972 
      31 H9        -1.9942    0.7192    4.0777 H         1 <0>         0.0968 
      32 H10       -1.8783    1.1310    7.7117 H         1 <0>         0.4034 
      33 H11       -1.1333    3.0230    8.8863 H         1 <0>         0.0764 
      34 H12       -1.2056    3.9340    7.3620 H         1 <0>         0.0833 
      35 H13        0.9663    2.9626    6.6785 H         1 <0>         0.0878 
      36 H14        1.0386    2.0516    8.2026 H         1 <0>         0.0899 
      37 H15        2.6467    4.7780    6.9812 H         1 <0>         0.0810 
      38 H16        1.2313    5.8445    7.1115 H         1 <0>         0.0967 
      39 H17        2.7851    7.0359    8.4532 H         1 <0>         0.1151 
      40 H18        3.6011    5.5779    9.0348 H         1 <0>         0.0972 
      41 H19        2.2122    6.2889   10.9014 H         1 <0>         0.1443 
      42 H20        0.8137    6.6668    9.8657 H         1 <0>         0.1447 
@<TRIPOS>BOND
       1        1        2 1        
       2        1       23 1        
       3        1       24 1        
       4        1       25 1        
       5        2        3 1        
       6        3        8 ar       
       7        3        4 ar       
       8        4        5 ar       
       9        4       26 1        
      10        5        6 ar       
      11        5       27 1        
      12        6        7 ar       
      13        6       28 1        
      14        7        8 ar       
      15        7        9 1        
      16        8       29 1        
      17        9       10 1        
      18       10       11 1        
      19       10       30 1        
      20       10       31 1        
      21       11       12 2        
      22       11       13 am       
      23       13       14 1        
      24       13       32 1        
      25       14       15 1        
      26       14       33 1        
      27       14       34 1        
      28       15       16 1        
      29       15       35 1        
      30       15       36 1        
      31       16       20 1        
      32       16       17 1        
      33       17       18 1        
      34       17       37 1        
      35       17       38 1        
      36       18       19 1        
      37       18       39 1        
      38       18       40 1        
      39       19       20 1        
      40       19       41 1        
      41       19       42 1        
      42       20       21 2        
      43       20       22 2        

