#        1GCZ_R01_S0001_C0000_L00014_S0001_C0013_G0010_E0001.mol2
#        Tue Jun  6 09:59:34 2017
#        Descriptor:     26    23    12    15     9    14
#        Energy - RMSD - RMSD MassCentre:     -47.7580    999.9999    999.9999
#        Receptor:       1  Surface Point:     1  Conformer:     0
#        Ligand:        14  Surface Point:     1  Conformer:    13
#        BUDE Formal Charge: 0
#        ATOM Count: 42
#        Heavy ATOM Count: 22
@<TRIPOS>MOLECULE
ZINC61597528_1GCZ_R01_S0001_C0000_L00014_S0001_C0013_G0010_E0001
 42 43 0 0 0
SMALL
USER_CHARGES
@<TRIPOS>ATOM
       1 C1         3.9035   -2.7759    7.1397 C.3       1 <0>         0.0268 
       2 O1         2.7527   -2.0018    6.7915 O.3       1 <0>        -0.3133 
       3 C2         2.8878   -0.6397    6.7346 C.ar      1 <0>         0.1677 
       4 C3         2.2404    0.0290    5.6890 C.ar      1 <0>        -0.2433 
       5 C4         2.3131    1.4180    5.5521 C.ar      1 <0>        -0.0391 
       6 C5         3.0558    2.1640    6.4750 C.ar      1 <0>        -0.2473 
       7 C6         3.7231    1.5058    7.5148 C.ar      1 <0>         0.1672 
       8 C7         3.6269    0.1160    7.6524 C.ar      1 <0>        -0.1836 
       9 O2         4.4762    2.2267    8.4038 O.3       1 <0>        -0.2863 
      10 C8         5.7278    1.6766    8.8232 C.3       1 <0>         0.0425 
      11 C9         6.6260    1.4988    7.6225 C.2       1 <0>         0.5165 
      12 O3         6.8965    0.3695    7.2177 O.2       1 <0>        -0.5075 
      13 N1         7.1251    2.5644    7.0022 N.am      1 <0>        -0.7277 
      14 C10        7.9995    2.3913    5.8334 C.3       1 <0>         0.0923 
      15 C11        9.3369    1.8035    6.2815 C.3       1 <0>         0.1538 
      16 N2        10.2112    1.6305    5.1126 N.pl3     1 <0>        -0.9868 
      17 C12        9.9100    0.6910    4.0229 C.3       1 <0>         0.0701 
      18 C13       11.2304    0.6364    3.2323 C.3       1 <0>        -0.1323 
      19 C14       11.7988    2.0676    3.2225 C.3       1 <0>        -0.5903 
      20 S1        11.6508    2.5669    4.9559 S.o2      1 <0>         2.5602 
      21 O4        11.3434    3.9604    5.0491 O.2       1 <0>        -0.9507 
      22 O5        12.6822    1.9636    5.7416 O.2       1 <0>        -0.9534 
      23 H1         4.2425   -2.4934    8.1343 H         1 <0>         0.1028 
      24 H2         3.6452   -3.8327    7.1305 H         1 <0>         0.0577 
      25 H3         4.6968   -2.5895    6.4190 H         1 <0>         0.0578 
      26 H4         1.6734   -0.5464    4.9722 H         1 <0>         0.1309 
      27 H5         1.8019    1.9125    4.7393 H         1 <0>         0.1300 
      28 H6         3.1155    3.2388    6.3883 H         1 <0>         0.1298 
      29 H7         4.1488   -0.3190    8.4919 H         1 <0>         0.1413 
      30 H8         5.5603    0.7112    9.2961 H         1 <0>         0.0972 
      31 H9         6.2015    2.3516    9.5330 H         1 <0>         0.0968 
      32 H10        6.9036    3.4923    7.3339 H         1 <0>         0.4034 
      33 H11        8.1686    3.3563    5.3601 H         1 <0>         0.0764 
      34 H12        7.5270    1.7159    5.1231 H         1 <0>         0.0833 
      35 H13        9.1692    0.8380    6.7543 H         1 <0>         0.0878 
      36 H14        9.8107    2.4783    6.9914 H         1 <0>         0.0899 
      37 H15        9.6753   -0.2753    4.4646 H         1 <0>         0.0810 
      38 H16        9.0805    1.0158    3.3982 H         1 <0>         0.0967 
      39 H17       11.0194    0.3409    2.2067 H         1 <0>         0.1151 
      40 H18       11.9310   -0.0750    3.6647 H         1 <0>         0.0972 
      41 H19       12.8531    2.0612    2.9537 H         1 <0>         0.1443 
      42 H20       11.2568    2.7544    2.5759 H         1 <0>         0.1447 
@<TRIPOS>BOND
       1        1        2 1        
       2        1       23 1        
       3        1       24 1        
       4        1       25 1        
       5        2        3 1        
       6        3        8 ar       
       7        3        4 ar       
       8        4        5 ar       
       9        4       26 1        
      10        5        6 ar       
      11        5       27 1        
      12        6        7 ar       
      13        6       28 1        
      14        7        8 ar       
      15        7        9 1        
      16        8       29 1        
      17        9       10 1        
      18       10       11 1        
      19       10       30 1        
      20       10       31 1        
      21       11       12 2        
      22       11       13 am       
      23       13       14 1        
      24       13       32 1        
      25       14       15 1        
      26       14       33 1        
      27       14       34 1        
      28       15       16 1        
      29       15       35 1        
      30       15       36 1        
      31       16       20 1        
      32       16       17 1        
      33       17       18 1        
      34       17       37 1        
      35       17       38 1        
      36       18       19 1        
      37       18       39 1        
      38       18       40 1        
      39       19       20 1        
      40       19       41 1        
      41       19       42 1        
      42       20       21 2        
      43       20       22 2        

