#        1GCZ_R01_S0001_C0000_L00014_S0001_C0013_G0010_E0001.mol2
#        Tue Jun  6 14:15:12 2017
#        Descriptor:      9    31    31    15     9    14
#        Energy - RMSD - RMSD MassCentre:     -48.5370    999.9999    999.9999
#        Receptor:       1  Surface Point:     1  Conformer:     0
#        Ligand:        14  Surface Point:     1  Conformer:    13
#        BUDE Formal Charge: 0
#        ATOM Count: 42
#        Heavy ATOM Count: 22
@<TRIPOS>MOLECULE
ZINC61597528_1GCZ_R01_S0001_C0000_L00014_S0001_C0013_G0010_E0001
 42 43 0 0 0
SMALL
USER_CHARGES
@<TRIPOS>ATOM
       1 C1         3.9805   -2.9567    6.6096 C.3       1 <0>         0.0268 
       2 O1         2.8332   -2.2051    6.2049 O.3       1 <0>        -0.3133 
       3 C2         2.9135   -0.8381    6.2457 C.ar      1 <0>         0.1677 
       4 C3         2.3347   -0.1266    5.1882 C.ar      1 <0>        -0.2433 
       5 C4         2.3590    1.2701    5.1454 C.ar      1 <0>        -0.0391 
       6 C5         2.9822    1.9810    6.1781 C.ar      1 <0>        -0.2473 
       7 C6         3.5807    1.2811    7.2323 C.ar      1 <0>         0.1672 
       8 C7         3.5331   -0.1174    7.2735 C.ar      1 <0>        -0.1836 
       9 O2         4.2184    1.9695    8.2306 O.3       1 <0>        -0.2863 
      10 C8         5.4498    1.4405    8.7294 C.3       1 <0>         0.0425 
      11 C9         6.4597    1.3762    7.6087 C.2       1 <0>         0.5165 
      12 O3         6.8145    0.2871    7.1612 O.2       1 <0>        -0.5075 
      13 N1         6.9659    2.4984    7.1050 N.am      1 <0>        -0.7277 
      14 C10        7.9490    2.4358    6.0140 C.3       1 <0>         0.0923 
      15 C11        9.2647    1.8705    6.5470 C.3       1 <0>         0.1538 
      16 N2        10.2478    1.8080    5.4558 N.pl3     1 <0>        -0.9868 
      17 C12       10.0873    0.9318    4.2865 C.3       1 <0>         0.0701 
      18 C13       11.4749    0.9792    3.6202 C.3       1 <0>        -0.1323 
      19 C14       11.9791    2.4283    3.7524 C.3       1 <0>        -0.5903 
      20 S1        11.6535    2.8062    5.4922 S.o2      1 <0>         2.5602 
      21 O4        11.2787    4.1780    5.6431 O.2       1 <0>        -0.9507 
      22 O5        12.6350    2.1915    6.3312 O.2       1 <0>        -0.9534 
      23 H1         4.2156   -2.7279    7.6470 H         1 <0>         0.1028 
      24 H2         3.7703   -4.0195    6.5107 H         1 <0>         0.0577 
      25 H3         4.8267   -2.6934    5.9787 H         1 <0>         0.0578 
      26 H4         1.8603   -0.6744    4.3874 H         1 <0>         0.1309 
      27 H5         1.9023    1.7976    4.3210 H         1 <0>         0.1300 
      28 H6         3.0026    3.0606    6.1644 H         1 <0>         0.1298 
      29 H7         3.9955   -0.5869    8.1291 H         1 <0>         0.1413 
      30 H8         5.2824    0.4403    9.1236 H         1 <0>         0.0972 
      31 H9         5.8277    2.0844    9.5208 H         1 <0>         0.0968 
      32 H10        6.6752    3.3934    7.4718 H         1 <0>         0.4034 
      33 H11        8.1180    3.4356    5.6195 H         1 <0>         0.0764 
      34 H12        7.5724    1.7915    5.2222 H         1 <0>         0.0833 
      35 H13        9.0972    0.8702    6.9411 H         1 <0>         0.0878 
      36 H14        9.6427    2.5143    7.3384 H         1 <0>         0.0899 
      37 H15        9.8560   -0.0696    4.6434 H         1 <0>         0.0810 
      38 H16        9.3043    1.2657    3.6088 H         1 <0>         0.0967 
      39 H17       11.3704    0.7444    2.5630 H         1 <0>         0.1151 
      40 H18       12.1638    0.2677    4.0706 H         1 <0>         0.0972 
      41 H19       13.0526    2.4793    3.5829 H         1 <0>         0.1443 
      42 H20       11.4683    3.1355    3.1022 H         1 <0>         0.1447 
@<TRIPOS>BOND
       1        1        2 1        
       2        1       23 1        
       3        1       24 1        
       4        1       25 1        
       5        2        3 1        
       6        3        8 ar       
       7        3        4 ar       
       8        4        5 ar       
       9        4       26 1        
      10        5        6 ar       
      11        5       27 1        
      12        6        7 ar       
      13        6       28 1        
      14        7        8 ar       
      15        7        9 1        
      16        8       29 1        
      17        9       10 1        
      18       10       11 1        
      19       10       30 1        
      20       10       31 1        
      21       11       12 2        
      22       11       13 am       
      23       13       14 1        
      24       13       32 1        
      25       14       15 1        
      26       14       33 1        
      27       14       34 1        
      28       15       16 1        
      29       15       35 1        
      30       15       36 1        
      31       16       20 1        
      32       16       17 1        
      33       17       18 1        
      34       17       37 1        
      35       17       38 1        
      36       18       19 1        
      37       18       39 1        
      38       18       40 1        
      39       19       20 1        
      40       19       41 1        
      41       19       42 1        
      42       20       21 2        
      43       20       22 2        

