#        1GCZ_R01_S0001_C0000_L00014_S0001_C0014_G0010_E0001.mol2
#        Tue Jun  6 09:59:35 2017
#        Descriptor:      7    20    11     8     8    15
#        Energy - RMSD - RMSD MassCentre:     -42.5927    999.9999    999.9999
#        Receptor:       1  Surface Point:     1  Conformer:     0
#        Ligand:        14  Surface Point:     1  Conformer:    14
#        BUDE Formal Charge: 0
#        ATOM Count: 42
#        Heavy ATOM Count: 22
@<TRIPOS>MOLECULE
ZINC61597528_1GCZ_R01_S0001_C0000_L00014_S0001_C0014_G0010_E0001
 42 43 0 0 0
SMALL
USER_CHARGES
@<TRIPOS>ATOM
       1 C1         1.8306   -3.5514    6.8544 C.3       1 <0>         0.0268 
       2 O1         2.4347   -2.2558    6.8197 O.3       1 <0>        -0.3133 
       3 C2         1.9585   -1.3489    5.9099 C.ar      1 <0>         0.1677 
       4 C3         2.8962   -0.5499    5.2450 C.ar      1 <0>        -0.2433 
       5 C4         2.5074    0.3978    4.2942 C.ar      1 <0>        -0.0391 
       6 C5         1.1486    0.5628    4.0006 C.ar      1 <0>        -0.2473 
       7 C6         0.1992   -0.2170    4.6716 C.ar      1 <0>         0.1672 
       8 C7         0.6025   -1.1764    5.6079 C.ar      1 <0>        -0.1836 
       9 O2        -1.1341   -0.0396    4.4109 O.3       1 <0>        -0.2863 
      10 C8        -1.6127    1.2975    4.2436 C.3       1 <0>         0.0425 
      11 C9        -1.3669    2.0814    5.5106 C.2       1 <0>         0.5165 
      12 O3        -0.5232    2.9761    5.5272 O.2       1 <0>        -0.5075 
      13 N1        -2.0631    1.8040    6.6094 N.am      1 <0>        -0.7277 
      14 C10       -1.8238    2.5671    7.8428 C.3       1 <0>         0.0923 
      15 C11       -0.4504    2.2050    8.4062 C.3       1 <0>         0.1538 
      16 N2        -0.4640    0.8101    8.8696 N.pl3     1 <0>        -0.9868 
      17 C12        0.7611    0.0198    9.0577 C.3       1 <0>         0.0701 
      18 C13        0.2760   -1.1879    9.8810 C.3       1 <0>        -0.1323 
      19 C14       -1.1127   -1.5665    9.3333 C.3       1 <0>        -0.5903 
      20 S1        -1.9562    0.0325    9.2466 S.o2      1 <0>         2.5602 
      21 O4        -2.3765    0.4462   10.5494 O.2       1 <0>        -0.9507 
      22 O5        -2.8326    0.0768    8.1173 O.2       1 <0>        -0.9534 
      23 H1         1.9614   -4.0378    5.8899 H         1 <0>         0.1028 
      24 H2         2.3027   -4.1503    7.6303 H         1 <0>         0.0577 
      25 H3         0.7689   -3.4501    7.0691 H         1 <0>         0.0578 
      26 H4         3.9441   -0.6713    5.4763 H         1 <0>         0.1309 
      27 H5         3.2493    1.0002    3.7911 H         1 <0>         0.1300 
      28 H6         0.8318    1.2850    3.2626 H         1 <0>         0.1298 
      29 H7        -0.1840   -1.7563    6.0678 H         1 <0>         0.1413 
      30 H8        -2.6796    1.2777    4.0314 H         1 <0>         0.0972 
      31 H9        -1.0866    1.7708    3.4171 H         1 <0>         0.0968 
      32 H10       -2.7562    1.0694    6.5968 H         1 <0>         0.4034 
      33 H11       -2.5909    2.3240    8.5750 H         1 <0>         0.0764 
      34 H12       -1.8556    3.6322    7.6229 H         1 <0>         0.0833 
      35 H13       -0.2158    2.8618    9.2414 H         1 <0>         0.0878 
      36 H14        0.3030    2.3213    7.6299 H         1 <0>         0.0899 
      37 H15        1.1178   -0.2896    8.0775 H         1 <0>         0.0810 
      38 H16        1.5464    0.5686    9.5734 H         1 <0>         0.0967 
      39 H17        0.1679   -0.8893   10.9214 H         1 <0>         0.1151 
      40 H18        0.9741   -2.0207    9.8261 H         1 <0>         0.0972 
      41 H19       -1.0324   -1.9697    8.3259 H         1 <0>         0.1443 
      42 H20       -1.6638   -2.2593    9.9658 H         1 <0>         0.1447 
@<TRIPOS>BOND
       1        1        2 1        
       2        1       23 1        
       3        1       24 1        
       4        1       25 1        
       5        2        3 1        
       6        3        8 ar       
       7        3        4 ar       
       8        4        5 ar       
       9        4       26 1        
      10        5        6 ar       
      11        5       27 1        
      12        6        7 ar       
      13        6       28 1        
      14        7        8 ar       
      15        7        9 1        
      16        8       29 1        
      17        9       10 1        
      18       10       11 1        
      19       10       30 1        
      20       10       31 1        
      21       11       12 2        
      22       11       13 am       
      23       13       14 1        
      24       13       32 1        
      25       14       15 1        
      26       14       33 1        
      27       14       34 1        
      28       15       16 1        
      29       15       35 1        
      30       15       36 1        
      31       16       20 1        
      32       16       17 1        
      33       17       18 1        
      34       17       37 1        
      35       17       38 1        
      36       18       19 1        
      37       18       39 1        
      38       18       40 1        
      39       19       20 1        
      40       19       41 1        
      41       19       42 1        
      42       20       21 2        
      43       20       22 2        

