#        1GCZ_R01_S0001_C0000_L00014_S0001_C0014_G0010_E0001.mol2
#        Tue Jun  6 14:15:14 2017
#        Descriptor:     35    20    12     9     9    14
#        Energy - RMSD - RMSD MassCentre:     -44.3660    999.9999    999.9999
#        Receptor:       1  Surface Point:     1  Conformer:     0
#        Ligand:        14  Surface Point:     1  Conformer:    14
#        BUDE Formal Charge: 0
#        ATOM Count: 42
#        Heavy ATOM Count: 22
@<TRIPOS>MOLECULE
ZINC61597528_1GCZ_R01_S0001_C0000_L00014_S0001_C0014_G0010_E0001
 42 43 0 0 0
SMALL
USER_CHARGES
@<TRIPOS>ATOM
       1 C1         3.8397   -1.3426    4.4401 C.3       1 <0>         0.0268 
       2 O1         3.0469   -0.3635    3.7639 O.3       1 <0>        -0.3133 
       3 C2         1.6865   -0.4225    3.9146 C.ar      1 <0>         0.1677 
       4 C3         0.9013   -0.1821    2.7808 C.ar      1 <0>        -0.2433 
       5 C4        -0.4945   -0.2279    2.8337 C.ar      1 <0>        -0.0391 
       6 C5        -1.1296   -0.5128    4.0484 C.ar      1 <0>        -0.2473 
       7 C6        -0.3567   -0.7372    5.1938 C.ar      1 <0>         0.1672 
       8 C7         1.0412   -0.7074    5.1238 C.ar      1 <0>        -0.1836 
       9 O2        -0.9724   -0.9867    6.3920 O.3       1 <0>        -0.2863 
      10 C8        -2.1401   -0.2279    6.7170 C.3       1 <0>         0.0425 
      11 C9        -1.7870    1.2392    6.7709 C.2       1 <0>         0.5165 
      12 O3        -2.2062    2.0056    5.9052 O.2       1 <0>        -0.5075 
      13 N1        -1.0220    1.7029    7.7551 N.am      1 <0>        -0.7277 
      14 C10       -0.6783    3.1313    7.8076 C.3       1 <0>         0.0923 
      15 C11        0.2795    3.4659    6.6651 C.3       1 <0>         0.1538 
      16 N2         1.5692    2.7997    6.8969 N.pl3     1 <0>        -0.9868 
      17 C12        2.5425    2.5503    5.8239 C.3       1 <0>         0.0701 
      18 C13        3.8289    2.1968    6.5932 C.3       1 <0>        -0.1323 
      19 C14        3.4000    1.3477    7.8043 C.3       1 <0>        -0.5903 
      20 S1         2.0150    2.2941    8.4839 S.o2      1 <0>         2.5602 
      21 O4         2.4949    3.4275    9.2120 O.2       1 <0>        -0.9507 
      22 O5         1.0208    1.4154    9.0174 O.2       1 <0>        -0.9534 
      23 H1         3.5686   -2.3352    4.0864 H         1 <0>         0.1028 
      24 H2         4.8926   -1.1593    4.2365 H         1 <0>         0.0577 
      25 H3         3.6599   -1.2770    5.5112 H         1 <0>         0.0578 
      26 H4         1.3902    0.0451    1.8450 H         1 <0>         0.1309 
      27 H5        -1.0794   -0.0428    1.9449 H         1 <0>         0.1300 
      28 H6        -2.2072   -0.5600    4.1048 H         1 <0>         0.1298 
      29 H7         1.5707   -0.9130    6.0423 H         1 <0>         0.1413 
      30 H8        -2.5212   -0.5444    7.6856 H         1 <0>         0.0972 
      31 H9        -2.9014   -0.3894    5.9566 H         1 <0>         0.0968 
      32 H10       -0.6772    1.0744    8.4666 H         1 <0>         0.4034 
      33 H11       -0.1995    3.3549    8.7586 H         1 <0>         0.0764 
      34 H12       -1.5834    3.7266    7.7074 H         1 <0>         0.0833 
      35 H13        0.4308    4.5426    6.6216 H         1 <0>         0.0878 
      36 H14       -0.1427    3.1201    5.7239 H         1 <0>         0.0899 
      37 H15        2.1898    1.7048    5.2371 H         1 <0>         0.0810 
      38 H16        2.6870    3.4096    5.1723 H         1 <0>         0.0967 
      39 H17        4.2886    3.1128    6.9582 H         1 <0>         0.1151 
      40 H18        4.5448    1.6723    5.9637 H         1 <0>         0.0972 
      41 H19        3.0296    0.3768    7.4818 H         1 <0>         0.1443 
      42 H20        4.1804    1.2162    8.5510 H         1 <0>         0.1447 
@<TRIPOS>BOND
       1        1        2 1        
       2        1       23 1        
       3        1       24 1        
       4        1       25 1        
       5        2        3 1        
       6        3        8 ar       
       7        3        4 ar       
       8        4        5 ar       
       9        4       26 1        
      10        5        6 ar       
      11        5       27 1        
      12        6        7 ar       
      13        6       28 1        
      14        7        8 ar       
      15        7        9 1        
      16        8       29 1        
      17        9       10 1        
      18       10       11 1        
      19       10       30 1        
      20       10       31 1        
      21       11       12 2        
      22       11       13 am       
      23       13       14 1        
      24       13       32 1        
      25       14       15 1        
      26       14       33 1        
      27       14       34 1        
      28       15       16 1        
      29       15       35 1        
      30       15       36 1        
      31       16       20 1        
      32       16       17 1        
      33       17       18 1        
      34       17       37 1        
      35       17       38 1        
      36       18       19 1        
      37       18       39 1        
      38       18       40 1        
      39       19       20 1        
      40       19       41 1        
      41       19       42 1        
      42       20       21 2        
      43       20       22 2        

