#        1GCZ_R01_S0001_C0000_L00003_S0001_C0024_G0010_E0001.mol2
#        Tue Jun  6 14:04:14 2017
#        Descriptor:     11    25    31     7    10    14
#        Energy - RMSD - RMSD MassCentre:     -59.9149    999.9999    999.9999
#        Receptor:       1  Surface Point:     1  Conformer:     0
#        Ligand:         3  Surface Point:     1  Conformer:    24
#        BUDE Formal Charge: 0
#        ATOM Count: 58
#        Heavy ATOM Count: 30
@<TRIPOS>MOLECULE
ZINC61580633_1GCZ_R01_S0001_C0000_L00003_S0001_C0024_G0010_E0001
 58 59 0 0 0
SMALL
USER_CHARGES
@<TRIPOS>ATOM
       1 C1        -1.4032    0.8771   -0.9370 C.3       1 <0>        -0.1532 
       2 C2         0.0150    1.1855   -0.4655 C.3       1 <0>        -0.1224 
       3 C3         0.2369    0.5695    0.9151 C.3       1 <0>        -0.1198 
       4 C4        -0.7564    1.1732    1.9069 C.3       1 <0>         0.0610 
       5 O1        -0.5487    0.5966    3.1990 O.3       1 <0>        -0.3878 
       6 C5        -1.4533    1.1254    4.1721 C.3       1 <0>         0.0487 
       7 C6        -1.1818    0.4723    5.5264 C.3       1 <0>         0.1244 
       8 N1        -1.6455   -0.9224    5.4987 N.am      1 <0>        -0.7216 
       9 C7        -1.5098   -1.6894    6.5767 C.2       1 <0>         0.5161 
      10 O2        -1.8973   -2.8564    6.5548 O.2       1 <0>        -0.5151 
      11 C8        -0.8796   -1.1270    7.8284 C.3       1 <0>         0.0490 
      12 O3        -1.7626   -0.1681    8.4163 O.3       1 <0>        -0.3194 
      13 C9        -2.9649   -0.5992    8.8538 C.2       1 <0>         0.5417 
      14 O4        -3.2698   -1.7752    8.7418 O.2       1 <0>        -0.5337 
      15 C10       -3.9134    0.3554    9.4694 C.2       1 <0>        -0.2559 
      16 C11       -5.2587   -0.0071    9.9688 C.2       1 <0>        -0.0791 
      17 C12       -5.9170    1.0430   10.4650 C.2       1 <0>        -0.2585 
      18 S1        -4.9778    2.5406   10.3784 S.3       1 <0>         0.3028 
      19 C13       -3.6422    1.6586    9.6228 C.2       1 <0>         0.0893 
      20 N2        -2.4553    2.2095    9.2170 N.am      1 <0>        -0.6099 
      21 C14       -2.2307    3.5089    9.3899 C.2       1 <0>         0.5551 
      22 O5        -3.0891    4.2166    9.9146 O.2       1 <0>        -0.4939 
      23 C15       -0.9479    4.1024    8.9511 C.ar      1 <0>        -0.1466 
      24 C16       -0.7548    5.4748    9.1495 C.ar      1 <0>        -0.0772 
      25 C17        0.4064    6.1071    8.6895 C.ar      1 <0>        -0.1241 
      26 C18        1.3924    5.3798    8.0126 C.ar      1 <0>        -0.0446 
      27 C19        1.2264    3.9981    7.8597 C.ar      1 <0>        -0.1261 
      28 C20        0.0770    3.3645    8.3471 C.ar      1 <0>        -0.0460 
      29 C21        2.6086    6.0915    7.4697 C.3       1 <0>        -0.0928 
      30 C22        2.3323    6.5509    6.0410 C.3       1 <0>        -0.1485 
      31 H1        -2.1184    1.3085   -0.2397 H         1 <0>         0.0567 
      32 H2        -1.5437   -0.2007   -0.9811 H         1 <0>         0.0554 
      33 H3        -1.5568    1.3044   -1.9257 H         1 <0>         0.0557 
      34 H4         0.7311    0.7655   -1.1688 H         1 <0>         0.0632 
      35 H5         0.1524    2.2632   -0.4074 H         1 <0>         0.0635 
      36 H6         0.0862   -0.5065    0.8614 H         1 <0>         0.0711 
      37 H7         1.2519    0.7780    1.2470 H         1 <0>         0.0704 
      38 H8        -0.6061    2.2494    1.9622 H         1 <0>         0.0498 
      39 H9        -1.7718    0.9645    1.5764 H         1 <0>         0.0505 
      40 H10       -2.4769    0.9164    3.8681 H         1 <0>         0.0584 
      41 H11       -1.3111    2.2010    4.2538 H         1 <0>         0.0702 
      42 H12       -1.7139    1.0153    6.3047 H         1 <0>         0.0872 
      43 H13       -0.1139    0.4947    5.7329 H         1 <0>         0.0805 
      44 H14       -2.0671   -1.2985    4.6615 H         1 <0>         0.4058 
      45 H15       -0.6966   -1.9324    8.5364 H         1 <0>         0.1008 
      46 H16        0.0622   -0.6445    7.5756 H         1 <0>         0.0999 
      47 H17       -5.6398   -1.0170    9.9366 H         1 <0>         0.1557 
      48 H18       -6.9099    0.9671   10.8829 H         1 <0>         0.1929 
      49 H19       -1.7504    1.6285    8.7863 H         1 <0>         0.4317 
      50 H20       -1.5102    6.0549    9.6587 H         1 <0>         0.1287 
      51 H21        0.5472    7.1651    8.8538 H         1 <0>         0.1326 
      52 H22        1.9986    3.4281    7.3645 H         1 <0>         0.1342 
      53 H23        0.0314    2.2896    8.2530 H         1 <0>         0.1410 
      54 H24        3.4581    5.4118    7.4750 H         1 <0>         0.0777 
      55 H25        2.8307    6.9553    8.0927 H         1 <0>         0.0771 
      56 H26        1.4906    7.2402    6.0387 H         1 <0>         0.0623 
      57 H27        2.0965    5.6875    5.4222 H         1 <0>         0.0572 
      58 H28        3.2133    7.0519    5.6452 H         1 <0>         0.0578 
@<TRIPOS>BOND
       1        1        2 1        
       2        1       31 1        
       3        1       32 1        
       4        1       33 1        
       5        2        3 1        
       6        2       34 1        
       7        2       35 1        
       8        3        4 1        
       9        3       36 1        
      10        3       37 1        
      11        4        5 1        
      12        4       38 1        
      13        4       39 1        
      14        5        6 1        
      15        6        7 1        
      16        6       40 1        
      17        6       41 1        
      18        7        8 1        
      19        7       42 1        
      20        7       43 1        
      21        8        9 am       
      22        8       44 1        
      23        9       10 2        
      24        9       11 1        
      25       11       12 1        
      26       11       45 1        
      27       11       46 1        
      28       12       13 1        
      29       13       14 2        
      30       13       15 1        
      31       15       19 2        
      32       15       16 1        
      33       16       17 2        
      34       16       47 1        
      35       17       18 1        
      36       17       48 1        
      37       18       19 1        
      38       19       20 1        
      39       20       21 am       
      40       20       49 1        
      41       21       22 2        
      42       21       23 1        
      43       23       28 ar       
      44       23       24 ar       
      45       24       25 ar       
      46       24       50 1        
      47       25       26 ar       
      48       25       51 1        
      49       26       27 ar       
      50       26       29 1        
      51       27       28 ar       
      52       27       52 1        
      53       28       53 1        
      54       29       30 1        
      55       29       54 1        
      56       29       55 1        
      57       30       56 1        
      58       30       57 1        
      59       30       58 1        

