#        1GCZ_R01_S0001_C0000_L00014_S0001_C0015_G0010_E0001.mol2
#        Tue Jun  6 09:59:36 2017
#        Descriptor:     16     4    35    10     9    13
#        Energy - RMSD - RMSD MassCentre:     -57.3148    999.9999    999.9999
#        Receptor:       1  Surface Point:     1  Conformer:     0
#        Ligand:        14  Surface Point:     1  Conformer:    15
#        BUDE Formal Charge: 0
#        ATOM Count: 42
#        Heavy ATOM Count: 22
@<TRIPOS>MOLECULE
ZINC61597528_1GCZ_R01_S0001_C0000_L00014_S0001_C0015_G0010_E0001
 42 43 0 0 0
SMALL
USER_CHARGES
@<TRIPOS>ATOM
       1 C1         0.0935    0.8517    0.2474 C.3       1 <0>         0.0268 
       2 O1        -1.2521    0.7111    0.7103 O.3       1 <0>        -0.3133 
       3 C2        -1.4655    0.6717    2.0630 C.ar      1 <0>         0.1677 
       4 C3        -2.4134   -0.2417    2.5396 C.ar      1 <0>        -0.2433 
       5 C4        -2.6942   -0.3605    3.9036 C.ar      1 <0>        -0.0391 
       6 C5        -2.0207    0.4558    4.8201 C.ar      1 <0>        -0.2473 
       7 C6        -1.0836    1.3860    4.3551 C.ar      1 <0>         0.1672 
       8 C7        -0.7971    1.4822    2.9882 C.ar      1 <0>        -0.1836 
       9 O2        -0.4429    2.2087    5.2438 O.3       1 <0>        -0.2863 
      10 C8        -0.0171    1.6490    6.4889 C.3       1 <0>         0.0425 
      11 C9         0.9667    0.5335    6.2281 C.2       1 <0>         0.5165 
      12 O3         0.6467   -0.6336    6.4475 O.2       1 <0>        -0.5075 
      13 N1         2.1801    0.8133    5.7610 N.am      1 <0>        -0.7277 
      14 C10        3.1379   -0.2726    5.5071 C.3       1 <0>         0.0923 
      15 C11        4.4453    0.3157    4.9787 C.3       1 <0>         0.1538 
      16 N2         5.0948    1.0971    6.0411 N.pl3     1 <0>        -0.9868 
      17 C12        6.5270    1.4274    6.0265 C.3       1 <0>         0.0701 
      18 C13        6.6434    2.5289    7.0964 C.3       1 <0>        -0.1323 
      19 C14        5.6958    2.1321    8.2437 C.3       1 <0>        -0.5903 
      20 S1         4.1723    1.6959    7.3691 S.o2      1 <0>         2.5602 
      21 O4         3.4793    2.8763    6.9553 O.2       1 <0>        -0.9507 
      22 O5         3.5055    0.6175    8.0305 O.2       1 <0>        -0.9534 
      23 H1         0.6853    0.0067    0.5926 H         1 <0>         0.1028 
      24 H2         0.1011    0.8806   -0.8402 H         1 <0>         0.0577 
      25 H3         0.5161    1.7750    0.6381 H         1 <0>         0.0578 
      26 H4        -2.9389   -0.8665    1.8326 H         1 <0>         0.1309 
      27 H5        -3.4269   -1.0751    4.2482 H         1 <0>         0.1300 
      28 H6        -2.2199    0.3709    5.8781 H         1 <0>         0.1298 
      29 H7        -0.0463    2.2057    2.7065 H         1 <0>         0.1413 
      30 H8        -0.8786    1.2543    7.0234 H         1 <0>         0.0972 
      31 H9         0.4609    2.4202    7.0893 H         1 <0>         0.0968 
      32 H10        2.4440    1.7714    5.5805 H         1 <0>         0.4034 
      33 H11        2.7244   -0.9567    4.7691 H         1 <0>         0.0764 
      34 H12        3.3311   -0.8105    6.4331 H         1 <0>         0.0833 
      35 H13        4.2353    0.9633    4.1299 H         1 <0>         0.0878 
      36 H14        5.1063   -0.4900    4.6662 H         1 <0>         0.0899 
      37 H15        7.0823    0.5376    6.3156 H         1 <0>         0.0810 
      38 H16        6.8743    1.7725    5.0548 H         1 <0>         0.0967 
      39 H17        6.3011    3.4718    6.6754 H         1 <0>         0.1151 
      40 H18        7.6682    2.6506    7.4411 H         1 <0>         0.0972 
      41 H19        6.0640    1.2470    8.7584 H         1 <0>         0.1443 
      42 H20        5.5133    2.9284    8.9622 H         1 <0>         0.1447 
@<TRIPOS>BOND
       1        1        2 1        
       2        1       23 1        
       3        1       24 1        
       4        1       25 1        
       5        2        3 1        
       6        3        8 ar       
       7        3        4 ar       
       8        4        5 ar       
       9        4       26 1        
      10        5        6 ar       
      11        5       27 1        
      12        6        7 ar       
      13        6       28 1        
      14        7        8 ar       
      15        7        9 1        
      16        8       29 1        
      17        9       10 1        
      18       10       11 1        
      19       10       30 1        
      20       10       31 1        
      21       11       12 2        
      22       11       13 am       
      23       13       14 1        
      24       13       32 1        
      25       14       15 1        
      26       14       33 1        
      27       14       34 1        
      28       15       16 1        
      29       15       35 1        
      30       15       36 1        
      31       16       20 1        
      32       16       17 1        
      33       17       18 1        
      34       17       37 1        
      35       17       38 1        
      36       18       19 1        
      37       18       39 1        
      38       18       40 1        
      39       19       20 1        
      40       19       41 1        
      41       19       42 1        
      42       20       21 2        
      43       20       22 2        

