#        1GCZ_R01_S0001_C0000_L00014_S0001_C0015_G0010_E0001.mol2
#        Tue Jun  6 14:15:16 2017
#        Descriptor:     12    30    22     8     9    12
#        Energy - RMSD - RMSD MassCentre:     -56.6744    999.9999    999.9999
#        Receptor:       1  Surface Point:     1  Conformer:     0
#        Ligand:        14  Surface Point:     1  Conformer:    15
#        BUDE Formal Charge: 0
#        ATOM Count: 42
#        Heavy ATOM Count: 22
@<TRIPOS>MOLECULE
ZINC61597528_1GCZ_R01_S0001_C0000_L00014_S0001_C0015_G0010_E0001
 42 43 0 0 0
SMALL
USER_CHARGES
@<TRIPOS>ATOM
       1 C1         1.5080    4.7985    7.0889 C.3       1 <0>         0.0268 
       2 O1         1.3205    4.0143    8.2698 O.3       1 <0>        -0.3133 
       3 C2         0.8665    2.7301    8.1231 C.ar      1 <0>         0.1677 
       4 C3        -0.0832    2.2729    9.0444 C.ar      1 <0>        -0.2433 
       5 C4        -0.6112    0.9809    8.9713 C.ar      1 <0>        -0.0391 
       6 C5        -0.1786    0.1152    7.9598 C.ar      1 <0>        -0.2473 
       7 C6         0.7841    0.5537    7.0430 C.ar      1 <0>         0.1672 
       8 C7         1.2912    1.8566    7.1149 C.ar      1 <0>        -0.1836 
       9 O2         1.2339   -0.2982    6.0688 O.3       1 <0>        -0.2863 
      10 C8         0.2782   -1.1447    5.4246 C.3       1 <0>         0.0425 
      11 C9        -0.7611   -0.2944    4.7340 C.2       1 <0>         0.5165 
      12 O3        -1.9121   -0.2569    5.1657 O.2       1 <0>        -0.5075 
      13 N1        -0.4317    0.4143    3.6578 N.am      1 <0>        -0.7277 
      14 C10       -1.4434    1.2421    2.9854 C.3       1 <0>         0.0923 
      15 C11       -0.8093    1.9468    1.7871 C.3       1 <0>         0.1538 
      16 N2        -0.4546    0.9511    0.7655 N.pl3     1 <0>        -0.9868 
      17 C12       -0.2369    1.2989   -0.6460 C.3       1 <0>         0.0701 
      18 C13        0.4549    0.0454   -1.2130 C.3       1 <0>        -0.1323 
      19 C14       -0.2206   -1.1697   -0.5503 C.3       1 <0>        -0.5903 
      20 S1        -0.2484   -0.7051    1.1988 S.o2      1 <0>         2.5602 
      21 O4         1.0474   -0.8726    1.7801 O.2       1 <0>        -0.9507 
      22 O5        -1.4326   -1.1992    1.8302 O.2       1 <0>        -0.9534 
      23 H1         0.5581    4.9026    6.5688 H         1 <0>         0.1028 
      24 H2         1.8816    5.7828    7.3635 H         1 <0>         0.0577 
      25 H3         2.2267    4.3059    6.4375 H         1 <0>         0.0578 
      26 H4        -0.4119    2.9375    9.8297 H         1 <0>         0.1309 
      27 H5        -1.3459    0.6516    9.6912 H         1 <0>         0.1300 
      28 H6        -0.5826   -0.8835    7.8843 H         1 <0>         0.1298 
      29 H7         2.0130    2.1314    6.3599 H         1 <0>         0.1413 
      30 H8        -0.2058   -1.7766    6.1664 H         1 <0>         0.0972 
      31 H9         0.7825   -1.7683    4.6894 H         1 <0>         0.0968 
      32 H10        0.5132    0.3844    3.3023 H         1 <0>         0.4034 
      33 H11       -1.8260    1.9855    3.6817 H         1 <0>         0.0764 
      34 H12       -2.2606    0.6104    2.6431 H         1 <0>         0.0833 
      35 H13        0.0881    2.4720    2.1078 H         1 <0>         0.0878 
      36 H14       -1.5170    2.6591    1.3681 H         1 <0>         0.0899 
      37 H15       -1.2087    1.4559   -1.1094 H         1 <0>         0.0810 
      38 H16        0.3752    2.1891   -0.7753 H         1 <0>         0.0967 
      39 H17        1.5041    0.0572   -0.9260 H         1 <0>         0.1151 
      40 H18        0.3889    0.0037   -2.2983 H         1 <0>         0.0972 
      41 H19       -1.2468   -1.2755   -0.8959 H         1 <0>         0.1443 
      42 H20        0.3156   -2.1058   -0.6921 H         1 <0>         0.1447 
@<TRIPOS>BOND
       1        1        2 1        
       2        1       23 1        
       3        1       24 1        
       4        1       25 1        
       5        2        3 1        
       6        3        8 ar       
       7        3        4 ar       
       8        4        5 ar       
       9        4       26 1        
      10        5        6 ar       
      11        5       27 1        
      12        6        7 ar       
      13        6       28 1        
      14        7        8 ar       
      15        7        9 1        
      16        8       29 1        
      17        9       10 1        
      18       10       11 1        
      19       10       30 1        
      20       10       31 1        
      21       11       12 2        
      22       11       13 am       
      23       13       14 1        
      24       13       32 1        
      25       14       15 1        
      26       14       33 1        
      27       14       34 1        
      28       15       16 1        
      29       15       35 1        
      30       15       36 1        
      31       16       20 1        
      32       16       17 1        
      33       17       18 1        
      34       17       37 1        
      35       17       38 1        
      36       18       19 1        
      37       18       39 1        
      38       18       40 1        
      39       19       20 1        
      40       19       41 1        
      41       19       42 1        
      42       20       21 2        
      43       20       22 2        

