#        1GCZ_R01_S0001_C0000_L00014_S0001_C0016_G0010_E0001.mol2
#        Tue Jun  6 09:59:36 2017
#        Descriptor:      5    20    17    11     9    14
#        Energy - RMSD - RMSD MassCentre:     -52.1295    999.9999    999.9999
#        Receptor:       1  Surface Point:     1  Conformer:     0
#        Ligand:        14  Surface Point:     1  Conformer:    16
#        BUDE Formal Charge: 0
#        ATOM Count: 42
#        Heavy ATOM Count: 22
@<TRIPOS>MOLECULE
ZINC61597528_1GCZ_R01_S0001_C0000_L00014_S0001_C0016_G0010_E0001
 42 43 0 0 0
SMALL
USER_CHARGES
@<TRIPOS>ATOM
       1 C1        -1.3547    2.7222    7.9464 C.3       1 <0>         0.0268 
       2 O1        -2.1546    2.0225    6.9896 O.3       1 <0>        -0.3133 
       3 C2        -1.5127    1.2550    6.0539 C.ar      1 <0>         0.1677 
       4 C3        -2.0823    0.0165    5.7356 C.ar      1 <0>        -0.2433 
       5 C4        -1.5048   -0.8330    4.7876 C.ar      1 <0>        -0.0391 
       6 C5        -0.3242   -0.4454    4.1428 C.ar      1 <0>        -0.2473 
       7 C6         0.2656    0.7825    4.4651 C.ar      1 <0>         0.1672 
       8 C7        -0.3328    1.6331    5.4023 C.ar      1 <0>        -0.1836 
       9 O2         1.4370    1.1544    3.8597 O.3       1 <0>        -0.2863 
      10 C8         2.4395    0.1531    3.6666 C.3       1 <0>         0.0425 
      11 C9         2.8639   -0.3980    5.0068 C.2       1 <0>         0.5165 
      12 O3         2.5639   -1.5481    5.3228 O.2       1 <0>        -0.5075 
      13 N1         3.5627    0.3609    5.8463 N.am      1 <0>        -0.7277 
      14 C10        3.9213    1.7357    5.4688 C.3       1 <0>         0.0923 
      15 C11        4.7165    2.3830    6.6017 C.3       1 <0>         0.1538 
      16 N2         6.0206    1.7163    6.7269 N.pl3     1 <0>        -0.9868 
      17 C12        7.2472    2.2403    6.1091 C.3       1 <0>         0.0701 
      18 C13        8.2358    1.0673    6.2434 C.3       1 <0>        -0.1323 
      19 C14        7.9757    0.4257    7.6190 C.3       1 <0>        -0.5903 
      20 S1         6.1729    0.2680    7.6505 S.o2      1 <0>         2.5602 
      21 O4         5.6771    0.4755    8.9757 O.2       1 <0>        -0.9507 
      22 O5         5.7520   -0.8382    6.8479 O.2       1 <0>        -0.9534 
      23 H1        -0.6960    3.4167    7.4289 H         1 <0>         0.1028 
      24 H2        -2.0017    3.2730    8.6257 H         1 <0>         0.0577 
      25 H3        -0.7585    2.0085    8.5109 H         1 <0>         0.0578 
      26 H4        -2.9889   -0.2866    6.2380 H         1 <0>         0.1309 
      27 H5        -1.9645   -1.7822    4.5557 H         1 <0>         0.1300 
      28 H6         0.1304   -1.0864    3.4020 H         1 <0>         0.1298 
      29 H7         0.1666    2.5736    5.5823 H         1 <0>         0.1413 
      30 H8         3.3003    0.5924    3.1668 H         1 <0>         0.0972 
      31 H9         2.0361   -0.6516    3.0556 H         1 <0>         0.0968 
      32 H10        3.8471   -0.0066    6.7431 H         1 <0>         0.4034 
      33 H11        3.0155    2.3107    5.2878 H         1 <0>         0.0764 
      34 H12        4.5272    1.7180    4.5654 H         1 <0>         0.0833 
      35 H13        4.1669    2.2816    7.5353 H         1 <0>         0.0878 
      36 H14        4.8687    3.4376    6.3823 H         1 <0>         0.0899 
      37 H15        7.0336    2.4576    5.0646 H         1 <0>         0.0810 
      38 H16        7.6199    3.1381    6.5979 H         1 <0>         0.0967 
      39 H17        9.2523    1.4549    6.2291 H         1 <0>         0.1151 
      40 H18        8.1232    0.3494    5.4336 H         1 <0>         0.0972 
      41 H19        8.4105   -0.5705    7.6674 H         1 <0>         0.1443 
      42 H20        8.3252    1.0226    8.4587 H         1 <0>         0.1447 
@<TRIPOS>BOND
       1        1        2 1        
       2        1       23 1        
       3        1       24 1        
       4        1       25 1        
       5        2        3 1        
       6        3        8 ar       
       7        3        4 ar       
       8        4        5 ar       
       9        4       26 1        
      10        5        6 ar       
      11        5       27 1        
      12        6        7 ar       
      13        6       28 1        
      14        7        8 ar       
      15        7        9 1        
      16        8       29 1        
      17        9       10 1        
      18       10       11 1        
      19       10       30 1        
      20       10       31 1        
      21       11       12 2        
      22       11       13 am       
      23       13       14 1        
      24       13       32 1        
      25       14       15 1        
      26       14       33 1        
      27       14       34 1        
      28       15       16 1        
      29       15       35 1        
      30       15       36 1        
      31       16       20 1        
      32       16       17 1        
      33       17       18 1        
      34       17       37 1        
      35       17       38 1        
      36       18       19 1        
      37       18       39 1        
      38       18       40 1        
      39       19       20 1        
      40       19       41 1        
      41       19       42 1        
      42       20       21 2        
      43       20       22 2        

