#        1GCZ_R01_S0001_C0000_L00014_S0001_C0016_G0010_E0001.mol2
#        Tue Jun  6 14:15:17 2017
#        Descriptor:     35    10    36     7     6    14
#        Energy - RMSD - RMSD MassCentre:     -51.1944    999.9999    999.9999
#        Receptor:       1  Surface Point:     1  Conformer:     0
#        Ligand:        14  Surface Point:     1  Conformer:    16
#        BUDE Formal Charge: 0
#        ATOM Count: 42
#        Heavy ATOM Count: 22
@<TRIPOS>MOLECULE
ZINC61597528_1GCZ_R01_S0001_C0000_L00014_S0001_C0016_G0010_E0001
 42 43 0 0 0
SMALL
USER_CHARGES
@<TRIPOS>ATOM
       1 C1        -0.8094   -2.6951    0.9802 C.3       1 <0>         0.0268 
       2 O1        -0.6063   -1.3051    0.7125 O.3       1 <0>        -0.3133 
       3 C2        -0.5412   -0.4481    1.7793 C.ar      1 <0>         0.1677 
       4 C3         0.4154    0.5726    1.7286 C.ar      1 <0>        -0.2433 
       5 C4         0.5522    1.5001    2.7653 C.ar      1 <0>        -0.0391 
       6 C5        -0.2791    1.4071    3.8879 C.ar      1 <0>        -0.2473 
       7 C6        -1.2276    0.3800    3.9595 C.ar      1 <0>         0.1672 
       8 C7        -1.3679   -0.5313    2.9060 C.ar      1 <0>        -0.1836 
       9 O2        -2.0238    0.2653    5.0685 O.3       1 <0>        -0.2863 
      10 C8        -1.4261    0.4845    6.3489 C.3       1 <0>         0.0425 
      11 C9        -0.3236   -0.5238    6.5680 C.2       1 <0>         0.5165 
      12 O3         0.8513   -0.1601    6.5740 O.2       1 <0>        -0.5075 
      13 N1        -0.6233   -1.8061    6.7545 N.am      1 <0>        -0.7277 
      14 C10       -2.0276   -2.2409    6.7471 C.3       1 <0>         0.0923 
      15 C11       -2.0941   -3.7492    6.9819 C.3       1 <0>         0.1538 
      16 N2        -1.6546   -4.0508    8.3519 N.pl3     1 <0>        -0.9868 
      17 C12       -2.5930   -4.2434    9.4667 C.3       1 <0>         0.0701 
      18 C13       -1.6779   -4.2096   10.7049 C.3       1 <0>        -0.1323 
      19 C14       -0.3831   -4.9477   10.3173 C.3       1 <0>        -0.5903 
      20 S1         0.0237   -4.2214    8.7101 S.o2      1 <0>         2.5602 
      21 O4         0.6119   -5.2037    7.8534 O.2       1 <0>        -0.9507 
      22 O5         0.5949   -2.9211    8.8774 O.2       1 <0>        -0.9534 
      23 H1        -1.7577   -2.8294    1.4966 H         1 <0>         0.1028 
      24 H2        -0.8253   -3.2458    0.0422 H         1 <0>         0.0577 
      25 H3         0.0003   -3.0654    1.6054 H         1 <0>         0.0578 
      26 H4         1.0621    0.6406    0.8664 H         1 <0>         0.1309 
      27 H5         1.2949    2.2814    2.7022 H         1 <0>         0.1300 
      28 H6        -0.1920    2.1205    4.6940 H         1 <0>         0.1298 
      29 H7        -2.1362   -1.2815    3.0214 H         1 <0>         0.1413 
      30 H8        -2.1794    0.3718    7.1257 H         1 <0>         0.0972 
      31 H9        -1.0108    1.4893    6.3885 H         1 <0>         0.0968 
      32 H10        0.1133   -2.4815    6.9010 H         1 <0>         0.4034 
      33 H11       -2.4761   -2.0042    5.7845 H         1 <0>         0.0764 
      34 H12       -2.5710   -1.7272    7.5374 H         1 <0>         0.0833 
      35 H13       -1.4428   -4.2563    6.2729 H         1 <0>         0.0878 
      36 H14       -3.1171   -4.0934    6.8460 H         1 <0>         0.0899 
      37 H15       -3.2905   -3.4083    9.4698 H         1 <0>         0.0810 
      38 H16       -3.1460   -5.1781    9.4009 H         1 <0>         0.0967 
      39 H17       -2.1566   -4.7537   11.5164 H         1 <0>         0.1151 
      40 H18       -1.4810   -3.1914   11.0339 H         1 <0>         0.0972 
      41 H19        0.4177   -4.7124   11.0153 H         1 <0>         0.1443 
      42 H20       -0.4965   -6.0266   10.2352 H         1 <0>         0.1447 
@<TRIPOS>BOND
       1        1        2 1        
       2        1       23 1        
       3        1       24 1        
       4        1       25 1        
       5        2        3 1        
       6        3        8 ar       
       7        3        4 ar       
       8        4        5 ar       
       9        4       26 1        
      10        5        6 ar       
      11        5       27 1        
      12        6        7 ar       
      13        6       28 1        
      14        7        8 ar       
      15        7        9 1        
      16        8       29 1        
      17        9       10 1        
      18       10       11 1        
      19       10       30 1        
      20       10       31 1        
      21       11       12 2        
      22       11       13 am       
      23       13       14 1        
      24       13       32 1        
      25       14       15 1        
      26       14       33 1        
      27       14       34 1        
      28       15       16 1        
      29       15       35 1        
      30       15       36 1        
      31       16       20 1        
      32       16       17 1        
      33       17       18 1        
      34       17       37 1        
      35       17       38 1        
      36       18       19 1        
      37       18       39 1        
      38       18       40 1        
      39       19       20 1        
      40       19       41 1        
      41       19       42 1        
      42       20       21 2        
      43       20       22 2        

