#        1GCZ_R01_S0001_C0000_L00014_S0001_C0017_G0010_E0001.mol2
#        Tue Jun  6 09:59:37 2017
#        Descriptor:     14     3    24    10     7    13
#        Energy - RMSD - RMSD MassCentre:     -51.7869    999.9999    999.9999
#        Receptor:       1  Surface Point:     1  Conformer:     0
#        Ligand:        14  Surface Point:     1  Conformer:    17
#        BUDE Formal Charge: 0
#        ATOM Count: 42
#        Heavy ATOM Count: 22
@<TRIPOS>MOLECULE
ZINC61597528_1GCZ_R01_S0001_C0000_L00014_S0001_C0017_G0010_E0001
 42 43 0 0 0
SMALL
USER_CHARGES
@<TRIPOS>ATOM
       1 C1        -0.2098   -0.3215   -0.4952 C.3       1 <0>         0.0268 
       2 O1        -0.6807   -1.1599    0.5631 O.3       1 <0>        -0.3133 
       3 C2        -0.9373   -0.5794    1.7771 C.ar      1 <0>         0.1677 
       4 C3        -2.0772   -1.0072    2.4681 C.ar      1 <0>        -0.2433 
       5 C4        -2.4175   -0.4795    3.7167 C.ar      1 <0>        -0.0391 
       6 C5        -1.6076    0.5066    4.2926 C.ar      1 <0>        -0.2473 
       7 C6        -0.4749    0.9563    3.6040 C.ar      1 <0>         0.1672 
       8 C7        -0.1340    0.4063    2.3626 C.ar      1 <0>        -0.1836 
       9 O2         0.3053    1.9423    4.1482 O.3       1 <0>        -0.2863 
      10 C8         1.7248    1.8167    4.0295 C.3       1 <0>         0.0425 
      11 C9         2.1767    0.5519    4.7197 C.2       1 <0>         0.5165 
      12 O3         2.5936   -0.3961    4.0565 O.2       1 <0>        -0.5075 
      13 N1         2.1235    0.4631    6.0456 N.am      1 <0>        -0.7277 
      14 C10        2.5635   -0.7682    6.7175 C.3       1 <0>         0.0923 
      15 C11        4.0802   -0.9025    6.5907 C.3       1 <0>         0.1538 
      16 N2         4.5201   -2.1338    7.2625 N.pl3     1 <0>        -0.9868 
      17 C12        4.0255   -3.4668    6.8892 C.3       1 <0>         0.0701 
      18 C13        5.0194   -4.4164    7.5835 C.3       1 <0>        -0.1323 
      19 C14        5.3441   -3.7913    8.9530 C.3       1 <0>        -0.5903 
      20 S1         5.6851   -2.0644    8.5318 S.o2      1 <0>         2.5602 
      21 O4         6.9883   -1.9391    7.9565 O.2       1 <0>        -0.9507 
      22 O5         5.2283   -1.1949    9.5713 O.2       1 <0>        -0.9534 
      23 H1         0.7354    0.1322   -0.2043 H         1 <0>         0.1028 
      24 H2        -0.0651   -0.9186   -1.3931 H         1 <0>         0.0577 
      25 H3        -0.9419    0.4588   -0.6920 H         1 <0>         0.0578 
      26 H4        -2.7067   -1.7624    2.0212 H         1 <0>         0.1309 
      27 H5        -3.2999   -0.8279    4.2329 H         1 <0>         0.1300 
      28 H6        -1.8518    0.9190    5.2605 H         1 <0>         0.1298 
      29 H7         0.7660    0.7860    1.9019 H         1 <0>         0.1413 
      30 H8         2.2057    2.6746    4.4948 H         1 <0>         0.0972 
      31 H9         1.9989    1.7728    2.9775 H         1 <0>         0.0968 
      32 H10        1.7813    1.2410    6.5913 H         1 <0>         0.4034 
      33 H11        2.0839   -1.6270    6.2525 H         1 <0>         0.0764 
      34 H12        2.2906   -0.7253    7.7699 H         1 <0>         0.0833 
      35 H13        4.5610   -0.0445    7.0561 H         1 <0>         0.0878 
      36 H14        4.3544   -0.9463    5.5387 H         1 <0>         0.0899 
      37 H15        3.0225   -3.5813    7.2951 H         1 <0>         0.0810 
      38 H16        4.0021   -3.6260    5.8131 H         1 <0>         0.0967 
      39 H17        5.9353   -4.4629    6.9984 H         1 <0>         0.1151 
      40 H18        4.6154   -5.4218    7.6825 H         1 <0>         0.0972 
      41 H19        4.4745   -3.8223    9.6062 H         1 <0>         0.1443 
      42 H20        6.1986   -4.2420    9.4535 H         1 <0>         0.1447 
@<TRIPOS>BOND
       1        1        2 1        
       2        1       23 1        
       3        1       24 1        
       4        1       25 1        
       5        2        3 1        
       6        3        8 ar       
       7        3        4 ar       
       8        4        5 ar       
       9        4       26 1        
      10        5        6 ar       
      11        5       27 1        
      12        6        7 ar       
      13        6       28 1        
      14        7        8 ar       
      15        7        9 1        
      16        8       29 1        
      17        9       10 1        
      18       10       11 1        
      19       10       30 1        
      20       10       31 1        
      21       11       12 2        
      22       11       13 am       
      23       13       14 1        
      24       13       32 1        
      25       14       15 1        
      26       14       33 1        
      27       14       34 1        
      28       15       16 1        
      29       15       35 1        
      30       15       36 1        
      31       16       20 1        
      32       16       17 1        
      33       17       18 1        
      34       17       37 1        
      35       17       38 1        
      36       18       19 1        
      37       18       39 1        
      38       18       40 1        
      39       19       20 1        
      40       19       41 1        
      41       19       42 1        
      42       20       21 2        
      43       20       22 2        

