#        1GCZ_R01_S0001_C0000_L00014_S0001_C0017_G0010_E0001.mol2
#        Tue Jun  6 14:15:19 2017
#        Descriptor:     12     2    25    10     7    13
#        Energy - RMSD - RMSD MassCentre:     -49.9854    999.9999    999.9999
#        Receptor:       1  Surface Point:     1  Conformer:     0
#        Ligand:        14  Surface Point:     1  Conformer:    17
#        BUDE Formal Charge: 0
#        ATOM Count: 42
#        Heavy ATOM Count: 22
@<TRIPOS>MOLECULE
ZINC61597528_1GCZ_R01_S0001_C0000_L00014_S0001_C0017_G0010_E0001
 42 43 0 0 0
SMALL
USER_CHARGES
@<TRIPOS>ATOM
       1 C1        -1.3244    1.0739    0.5069 C.3       1 <0>         0.0268 
       2 O1        -1.5646   -0.0529    1.3538 O.3       1 <0>        -0.3133 
       3 C2        -1.5532    0.1476    2.7089 C.ar      1 <0>         0.1677 
       4 C3        -2.5227   -0.5193    3.4673 C.ar      1 <0>        -0.2433 
       5 C4        -2.5861   -0.3837    4.8569 C.ar      1 <0>        -0.0391 
       6 C5        -1.6659    0.4436    5.5118 C.ar      1 <0>        -0.2473 
       7 C6        -0.7029    1.1306    4.7633 C.ar      1 <0>         0.1672 
       8 C7        -0.6375    0.9716    3.3740 C.ar      1 <0>        -0.1836 
       9 O2         0.1814    1.9651    5.3946 O.3       1 <0>        -0.2863 
      10 C8         1.5423    1.9564    4.9556 C.3       1 <0>         0.0425 
      11 C9         2.1227    0.5754    5.1460 C.2       1 <0>         0.5165 
      12 O3         2.3830   -0.1234    4.1680 O.2       1 <0>        -0.5075 
      13 N1         2.3525    0.1144    6.3723 N.am      1 <0>        -0.7277 
      14 C10        2.9176   -1.2300    6.5576 C.3       1 <0>         0.0923 
      15 C11        4.3717   -1.2395    6.0886 C.3       1 <0>         0.1538 
      16 N2         4.9367   -2.5838    6.2739 N.pl3     1 <0>        -0.9868 
      17 C12        4.3656   -3.7831    5.6443 C.3       1 <0>         0.0701 
      18 C13        5.4784   -4.8334    5.8175 C.3       1 <0>        -0.1323 
      19 C14        6.0912   -4.6018    7.2113 C.3       1 <0>        -0.5903 
      20 S1         6.3456   -2.8101    7.2419 S.o2      1 <0>         2.5602 
      21 O4         7.4972   -2.4565    6.4714 O.2       1 <0>        -0.9507 
      22 O5         6.1259   -2.2947    8.5577 O.2       1 <0>        -0.9534 
      23 H1        -0.3361    1.4788    0.7147 H         1 <0>         0.1028 
      24 H2        -1.3779    0.7624   -0.5341 H         1 <0>         0.0577 
      25 H3        -2.0767    1.8365    0.6969 H         1 <0>         0.0578 
      26 H4        -3.2375   -1.1518    2.9622 H         1 <0>         0.1309 
      27 H5        -3.3405   -0.9113    5.4216 H         1 <0>         0.1300 
      28 H6        -1.6960    0.5530    6.5858 H         1 <0>         0.1298 
      29 H7         0.1462    1.5145    2.8666 H         1 <0>         0.1413 
      30 H8         2.1166    2.6739    5.5379 H         1 <0>         0.0972 
      31 H9         1.5859    2.2253    3.9022 H         1 <0>         0.0968 
      32 H10        2.1391    0.6874    7.1762 H         1 <0>         0.4034 
      33 H11        2.3446   -1.9484    5.9751 H         1 <0>         0.0764 
      34 H12        2.8752   -1.4999    7.6108 H         1 <0>         0.0833 
      35 H13        4.9459   -0.5219    6.6710 H         1 <0>         0.0878 
      36 H14        4.4154   -0.9704    5.0352 H         1 <0>         0.0899 
      37 H15        3.4713   -4.0622    6.1976 H         1 <0>         0.0810 
      38 H16        4.1127   -3.6342    4.5966 H         1 <0>         0.0967 
      39 H17        6.2486   -4.6629    5.0683 H         1 <0>         0.1151 
      40 H18        5.0985   -5.8467    5.7052 H         1 <0>         0.0972 
      41 H19        5.3803   -4.8631    7.9925 H         1 <0>         0.1443 
      42 H20        7.0297   -5.1273    7.3747 H         1 <0>         0.1447 
@<TRIPOS>BOND
       1        1        2 1        
       2        1       23 1        
       3        1       24 1        
       4        1       25 1        
       5        2        3 1        
       6        3        8 ar       
       7        3        4 ar       
       8        4        5 ar       
       9        4       26 1        
      10        5        6 ar       
      11        5       27 1        
      12        6        7 ar       
      13        6       28 1        
      14        7        8 ar       
      15        7        9 1        
      16        8       29 1        
      17        9       10 1        
      18       10       11 1        
      19       10       30 1        
      20       10       31 1        
      21       11       12 2        
      22       11       13 am       
      23       13       14 1        
      24       13       32 1        
      25       14       15 1        
      26       14       33 1        
      27       14       34 1        
      28       15       16 1        
      29       15       35 1        
      30       15       36 1        
      31       16       20 1        
      32       16       17 1        
      33       17       18 1        
      34       17       37 1        
      35       17       38 1        
      36       18       19 1        
      37       18       39 1        
      38       18       40 1        
      39       19       20 1        
      40       19       41 1        
      41       19       42 1        
      42       20       21 2        
      43       20       22 2        

