#        1GCZ_R01_S0001_C0000_L00014_S0001_C0018_G0010_E0001.mol2
#        Tue Jun  6 09:59:38 2017
#        Descriptor:     11    33    23     8     7    13
#        Energy - RMSD - RMSD MassCentre:     -50.9187    999.9999    999.9999
#        Receptor:       1  Surface Point:     1  Conformer:     0
#        Ligand:        14  Surface Point:     1  Conformer:    18
#        BUDE Formal Charge: 0
#        ATOM Count: 42
#        Heavy ATOM Count: 22
@<TRIPOS>MOLECULE
ZINC61597528_1GCZ_R01_S0001_C0000_L00014_S0001_C0018_G0010_E0001
 42 43 0 0 0
SMALL
USER_CHARGES
@<TRIPOS>ATOM
       1 C1        -0.4020   -2.9869    0.2628 C.3       1 <0>         0.0268 
       2 O1         0.1995   -1.7525   -0.1365 O.3       1 <0>        -0.3133 
       3 C2         0.0197   -0.6597    0.6698 C.ar      1 <0>         0.1677 
       4 C3        -0.2180    0.5702    0.0449 C.ar      1 <0>        -0.2433 
       5 C4        -0.4213    1.7394    0.7832 C.ar      1 <0>        -0.0391 
       6 C5        -0.3797    1.6880    2.1817 C.ar      1 <0>        -0.2473 
       7 C6        -0.1248    0.4677    2.8187 C.ar      1 <0>         0.1672 
       8 C7         0.0582   -0.7000    2.0686 C.ar      1 <0>        -0.1836 
       9 O2        -0.0529    0.4160    4.1859 O.3       1 <0>        -0.2863 
      10 C8         0.6152    1.4835    4.8633 C.3       1 <0>         0.0425 
      11 C9         0.5811    1.2331    6.3520 C.2       1 <0>         0.5165 
      12 O3        -0.1099    1.9436    7.0803 O.2       1 <0>        -0.5075 
      13 N1         1.2991    0.2437    6.8761 N.am      1 <0>        -0.7277 
      14 C10        1.2659   -0.0000    8.3255 C.3       1 <0>         0.0923 
      15 C11       -0.1055   -0.5481    8.7176 C.3       1 <0>         0.1538 
      16 N2        -0.2774   -1.8911    8.1454 N.pl3     1 <0>        -0.9868 
      17 C12       -1.2192   -2.1790    7.0542 C.3       1 <0>         0.0701 
      18 C13       -1.2707   -3.7180    7.0326 C.3       1 <0>        -0.1323 
      19 C14        0.1622   -4.2117    7.3054 C.3       1 <0>        -0.5903 
      20 S1         0.6634   -3.2132    8.7294 S.o2      1 <0>         2.5602 
      21 O4         2.0560   -2.8977    8.6520 O.2       1 <0>        -0.9507 
      22 O5         0.0643   -3.7127    9.9280 O.2       1 <0>        -0.9534 
      23 H1        -1.4814   -2.8626    0.3174 H         1 <0>         0.1028 
      24 H2        -0.1616   -3.7588   -0.4651 H         1 <0>         0.0577 
      25 H3        -0.0198   -3.2766    1.2393 H         1 <0>         0.0578 
      26 H4        -0.2428    0.6123   -1.0339 H         1 <0>         0.1309 
      27 H5        -0.6069    2.6762    0.2791 H         1 <0>         0.1300 
      28 H6        -0.5428    2.5806    2.7673 H         1 <0>         0.1298 
      29 H7         0.2270   -1.6074    2.6294 H         1 <0>         0.1413 
      30 H8         0.1143    2.4237    4.6428 H         1 <0>         0.0972 
      31 H9         1.6491    1.5354    4.5285 H         1 <0>         0.0968 
      32 H10        1.8668   -0.3404    6.2790 H         1 <0>         0.4034 
      33 H11        1.4479    0.9328    8.8550 H         1 <0>         0.0764 
      34 H12        2.0340   -0.7238    8.5898 H         1 <0>         0.0833 
      35 H13       -0.8827    0.1105    8.3353 H         1 <0>         0.0878 
      36 H14       -0.1778   -0.6044    9.8017 H         1 <0>         0.0899 
      37 H15       -2.1856   -1.7565    7.3212 H         1 <0>         0.0810 
      38 H16       -0.8979   -1.7741    6.0968 H         1 <0>         0.0967 
      39 H17       -1.5682   -4.0504    6.0403 H         1 <0>         0.1151 
      40 H18       -1.9793   -4.1086    7.7600 H         1 <0>         0.0972 
      41 H19        0.1588   -5.2586    7.6016 H         1 <0>         0.1443 
      42 H20        0.8465   -4.0658    6.4723 H         1 <0>         0.1447 
@<TRIPOS>BOND
       1        1        2 1        
       2        1       23 1        
       3        1       24 1        
       4        1       25 1        
       5        2        3 1        
       6        3        8 ar       
       7        3        4 ar       
       8        4        5 ar       
       9        4       26 1        
      10        5        6 ar       
      11        5       27 1        
      12        6        7 ar       
      13        6       28 1        
      14        7        8 ar       
      15        7        9 1        
      16        8       29 1        
      17        9       10 1        
      18       10       11 1        
      19       10       30 1        
      20       10       31 1        
      21       11       12 2        
      22       11       13 am       
      23       13       14 1        
      24       13       32 1        
      25       14       15 1        
      26       14       33 1        
      27       14       34 1        
      28       15       16 1        
      29       15       35 1        
      30       15       36 1        
      31       16       20 1        
      32       16       17 1        
      33       17       18 1        
      34       17       37 1        
      35       17       38 1        
      36       18       19 1        
      37       18       39 1        
      38       18       40 1        
      39       19       20 1        
      40       19       41 1        
      41       19       42 1        
      42       20       21 2        
      43       20       22 2        

