#        1GCZ_R01_S0001_C0000_L00014_S0001_C0018_G0010_E0001.mol2
#        Tue Jun  6 14:15:20 2017
#        Descriptor:     29    25    16    10     8    13
#        Energy - RMSD - RMSD MassCentre:     -46.2267    999.9999    999.9999
#        Receptor:       1  Surface Point:     1  Conformer:     0
#        Ligand:        14  Surface Point:     1  Conformer:    18
#        BUDE Formal Charge: 0
#        ATOM Count: 42
#        Heavy ATOM Count: 22
@<TRIPOS>MOLECULE
ZINC61597528_1GCZ_R01_S0001_C0000_L00014_S0001_C0018_G0010_E0001
 42 43 0 0 0
SMALL
USER_CHARGES
@<TRIPOS>ATOM
       1 C1         0.7517    1.4858    0.2267 C.3       1 <0>         0.0268 
       2 O1        -0.5622    1.6100    0.7771 O.3       1 <0>        -0.3133 
       3 C2        -0.8820    0.8322    1.8586 C.ar      1 <0>         0.1677 
       4 C3        -2.1603    0.2624    1.8873 C.ar      1 <0>        -0.2433 
       5 C4        -2.5753   -0.5520    2.9445 C.ar      1 <0>        -0.0391 
       6 C5        -1.6993   -0.8018    4.0077 C.ar      1 <0>        -0.2473 
       7 C6        -0.4245   -0.2233    4.0002 C.ar      1 <0>         0.1672 
       8 C7        -0.0137    0.5751    2.9262 C.ar      1 <0>        -0.1836 
       9 O2         0.4268   -0.4391    5.0518 O.3       1 <0>        -0.2863 
      10 C8        -0.1215   -0.4251    6.3724 C.3       1 <0>         0.0425 
      11 C9         0.9776   -0.6817    7.3754 C.2       1 <0>         0.5165 
      12 O3         1.0083   -1.7421    7.9976 O.2       1 <0>        -0.5075 
      13 N1         1.9133    0.2398    7.5863 N.am      1 <0>        -0.7277 
      14 C10        2.9833   -0.0100    8.5629 C.3       1 <0>         0.0923 
      15 C11        3.9181   -1.0933    8.0268 C.3       1 <0>         0.1538 
      16 N2         4.6429   -0.5785    6.8561 N.pl3     1 <0>        -0.9868 
      17 C12        4.3948   -1.0591    5.4893 C.3       1 <0>         0.0701 
      18 C13        5.5791   -0.4794    4.6937 C.3       1 <0>        -0.1323 
      19 C14        5.8371    0.9326    5.2516 C.3       1 <0>        -0.5903 
      20 S1         5.8265    0.6620    7.0412 S.o2      1 <0>         2.5602 
      21 O4         5.2569    1.7888    7.7127 O.2       1 <0>        -0.9507 
      22 O5         7.0560    0.0678    7.4659 O.2       1 <0>        -0.9534 
      23 H1         0.9055    0.4647   -0.1163 H         1 <0>         0.1028 
      24 H2         0.8592    2.1706   -0.6117 H         1 <0>         0.0577 
      25 H3         1.4883    1.7274    0.9899 H         1 <0>         0.0578 
      26 H4        -2.8394    0.4606    1.0713 H         1 <0>         0.1309 
      27 H5        -3.5651   -0.9839    2.9430 H         1 <0>         0.1300 
      28 H6        -2.0013   -1.4354    4.8285 H         1 <0>         0.1298 
      29 H7         0.9910    0.9677    2.9787 H         1 <0>         0.1413 
      30 H8        -0.8793   -1.2008    6.4595 H         1 <0>         0.0972 
      31 H9        -0.5713    0.5459    6.5686 H         1 <0>         0.0968 
      32 H10        1.8891    1.1109    7.0759 H         1 <0>         0.4034 
      33 H11        2.5472   -0.3409    9.5030 H         1 <0>         0.0764 
      34 H12        3.5471    0.9061    8.7264 H         1 <0>         0.0833 
      35 H13        3.3353   -1.9652    7.7371 H         1 <0>         0.0878 
      36 H14        4.6309   -1.3732    8.7996 H         1 <0>         0.0899 
      37 H15        4.4242   -2.1466    5.5026 H         1 <0>         0.0810 
      38 H16        3.4397   -0.7265    5.0880 H         1 <0>         0.0967 
      39 H17        5.2959   -0.3914    3.6470 H         1 <0>         0.1151 
      40 H18        6.4620   -1.1112    4.7658 H         1 <0>         0.0972 
      41 H19        6.8242    1.2866    4.9616 H         1 <0>         0.1443 
      42 H20        5.0839    1.6647    4.9680 H         1 <0>         0.1447 
@<TRIPOS>BOND
       1        1        2 1        
       2        1       23 1        
       3        1       24 1        
       4        1       25 1        
       5        2        3 1        
       6        3        8 ar       
       7        3        4 ar       
       8        4        5 ar       
       9        4       26 1        
      10        5        6 ar       
      11        5       27 1        
      12        6        7 ar       
      13        6       28 1        
      14        7        8 ar       
      15        7        9 1        
      16        8       29 1        
      17        9       10 1        
      18       10       11 1        
      19       10       30 1        
      20       10       31 1        
      21       11       12 2        
      22       11       13 am       
      23       13       14 1        
      24       13       32 1        
      25       14       15 1        
      26       14       33 1        
      27       14       34 1        
      28       15       16 1        
      29       15       35 1        
      30       15       36 1        
      31       16       20 1        
      32       16       17 1        
      33       17       18 1        
      34       17       37 1        
      35       17       38 1        
      36       18       19 1        
      37       18       39 1        
      38       18       40 1        
      39       19       20 1        
      40       19       41 1        
      41       19       42 1        
      42       20       21 2        
      43       20       22 2        

