#        1GCZ_R01_S0001_C0000_L00014_S0001_C0019_G0010_E0001.mol2
#        Tue Jun  6 09:59:39 2017
#        Descriptor:      8    31    15     9     8    12
#        Energy - RMSD - RMSD MassCentre:     -63.3796    999.9999    999.9999
#        Receptor:       1  Surface Point:     1  Conformer:     0
#        Ligand:        14  Surface Point:     1  Conformer:    19
#        BUDE Formal Charge: 0
#        ATOM Count: 42
#        Heavy ATOM Count: 22
@<TRIPOS>MOLECULE
ZINC61597528_1GCZ_R01_S0001_C0000_L00014_S0001_C0019_G0010_E0001
 42 43 0 0 0
SMALL
USER_CHARGES
@<TRIPOS>ATOM
       1 C1         4.5133   -2.5379    6.4878 C.3       1 <0>         0.0268 
       2 O1         3.5751   -2.9578    7.4820 O.3       1 <0>        -0.3133 
       3 C2         2.4050   -2.2550    7.5988 C.ar      1 <0>         0.1677 
       4 C3         1.2326   -2.9874    7.8194 C.ar      1 <0>        -0.2433 
       5 C4        -0.0078   -2.3589    7.9596 C.ar      1 <0>        -0.0391 
       6 C5        -0.0882   -0.9640    7.8707 C.ar      1 <0>        -0.2473 
       7 C6         1.0740   -0.2210    7.6323 C.ar      1 <0>         0.1672 
       8 C7         2.3135   -0.8607    7.5127 C.ar      1 <0>        -0.1836 
       9 O2         0.9980    1.1419    7.5143 O.3       1 <0>        -0.2863 
      10 C8         1.7930    1.7733    6.5072 C.3       1 <0>         0.0425 
      11 C9         1.3893    1.2523    5.1486 C.2       1 <0>         0.5165 
      12 O3         2.1549    0.5282    4.5145 O.2       1 <0>        -0.5075 
      13 N1         0.2052    1.5768    4.6373 N.am      1 <0>        -0.7277 
      14 C10       -0.1877    1.0696    3.3147 C.3       1 <0>         0.0923 
      15 C11        0.6616    1.7443    2.2386 C.3       1 <0>         0.1538 
      16 N2         0.2687    1.2371    0.9160 N.pl3     1 <0>        -0.9868 
      17 C12        0.5574    1.9572   -0.3326 C.3       1 <0>         0.0701 
      18 C13        0.3053    0.8931   -1.4170 C.3       1 <0>        -0.1323 
      19 C14       -0.9228    0.0823   -0.9630 C.3       1 <0>        -0.5903 
      20 S1        -0.5450   -0.2761    0.7704 S.o2      1 <0>         2.5602 
      21 O4         0.4180   -1.3292    0.8636 O.2       1 <0>        -0.9507 
      22 O5        -1.7399   -0.2693    1.5561 O.2       1 <0>        -0.9534 
      23 H1         4.8275   -1.5171    6.6948 H         1 <0>         0.1028 
      24 H2         5.3797   -3.1956    6.5070 H         1 <0>         0.0577 
      25 H3         4.0452   -2.5821    5.5068 H         1 <0>         0.0578 
      26 H4         1.2925   -4.0640    7.8805 H         1 <0>         0.1309 
      27 H5        -0.8985   -2.9446    8.1330 H         1 <0>         0.1300 
      28 H6        -1.0376   -0.4620    7.9849 H         1 <0>         0.1298 
      29 H7         3.1687   -0.2208    7.3531 H         1 <0>         0.1413 
      30 H8         2.8437    1.5523    6.6822 H         1 <0>         0.0972 
      31 H9         1.6371    2.8496    6.5432 H         1 <0>         0.0968 
      32 H10       -0.4244    2.1714    5.1572 H         1 <0>         0.4034 
      33 H11       -1.2383    1.2909    3.1381 H         1 <0>         0.0764 
      34 H12       -0.0317   -0.0065    3.2772 H         1 <0>         0.0833 
      35 H13        1.7125    1.5231    2.4136 H         1 <0>         0.0878 
      36 H14        0.5060    2.8205    2.2745 H         1 <0>         0.0899 
      37 H15       -0.1476    2.7814   -0.4185 H         1 <0>         0.0810 
      38 H16        1.5739    2.3427   -0.3763 H         1 <0>         0.0967 
      39 H17        1.1622    0.2247   -1.4660 H         1 <0>         0.1151 
      40 H18        0.1547    1.3423   -2.3964 H         1 <0>         0.0972 
      41 H19       -1.8227    0.6928   -1.0012 H         1 <0>         0.1443 
      42 H20       -1.0767   -0.8381   -1.5223 H         1 <0>         0.1447 
@<TRIPOS>BOND
       1        1        2 1        
       2        1       23 1        
       3        1       24 1        
       4        1       25 1        
       5        2        3 1        
       6        3        8 ar       
       7        3        4 ar       
       8        4        5 ar       
       9        4       26 1        
      10        5        6 ar       
      11        5       27 1        
      12        6        7 ar       
      13        6       28 1        
      14        7        8 ar       
      15        7        9 1        
      16        8       29 1        
      17        9       10 1        
      18       10       11 1        
      19       10       30 1        
      20       10       31 1        
      21       11       12 2        
      22       11       13 am       
      23       13       14 1        
      24       13       32 1        
      25       14       15 1        
      26       14       33 1        
      27       14       34 1        
      28       15       16 1        
      29       15       35 1        
      30       15       36 1        
      31       16       20 1        
      32       16       17 1        
      33       17       18 1        
      34       17       37 1        
      35       17       38 1        
      36       18       19 1        
      37       18       39 1        
      38       18       40 1        
      39       19       20 1        
      40       19       41 1        
      41       19       42 1        
      42       20       21 2        
      43       20       22 2        

