#        1GCZ_R01_S0001_C0000_L00014_S0001_C0019_G0010_E0001.mol2
#        Tue Jun  6 14:15:22 2017
#        Descriptor:      9    30    20     8     9    13
#        Energy - RMSD - RMSD MassCentre:     -53.7265    999.9999    999.9999
#        Receptor:       1  Surface Point:     1  Conformer:     0
#        Ligand:        14  Surface Point:     1  Conformer:    19
#        BUDE Formal Charge: 0
#        ATOM Count: 42
#        Heavy ATOM Count: 22
@<TRIPOS>MOLECULE
ZINC61597528_1GCZ_R01_S0001_C0000_L00014_S0001_C0019_G0010_E0001
 42 43 0 0 0
SMALL
USER_CHARGES
@<TRIPOS>ATOM
       1 C1         3.7504    1.5878    8.2500 C.3       1 <0>         0.0268 
       2 O1         3.1416    0.6969    9.1884 O.3       1 <0>        -0.3133 
       3 C2         1.8023    0.4412    9.0558 C.ar      1 <0>         0.1677 
       4 C3         1.3741   -0.8756    9.2614 C.ar      1 <0>        -0.2433 
       5 C4         0.0269   -1.2323    9.1562 C.ar      1 <0>        -0.0391 
       6 C5        -0.9216   -0.2556    8.8301 C.ar      1 <0>        -0.2473 
       7 C6        -0.5045    1.0614    8.6041 C.ar      1 <0>         0.1672 
       8 C7         0.8454    1.4101    8.7313 C.ar      1 <0>        -0.1836 
       9 O2        -1.4234    2.0157    8.2552 O.3       1 <0>        -0.2863 
      10 C8        -1.0549    2.9671    7.2532 C.3       1 <0>         0.0425 
      11 C9        -0.7501    2.2449    5.9626 C.2       1 <0>         0.5165 
      12 O3         0.4058    2.1892    5.5464 O.2       1 <0>        -0.5075 
      13 N1        -1.7323    1.6688    5.2755 N.am      1 <0>        -0.7277 
      14 C10       -1.4356    0.9658    4.0190 C.3       1 <0>         0.0923 
      15 C11       -1.0419    1.9823    2.9484 C.3       1 <0>         0.1538 
      16 N2        -0.7451    1.2793    1.6919 N.pl3     1 <0>        -0.9868 
      17 C12       -0.7596    1.9461    0.3820 C.3       1 <0>         0.0701 
      18 C13       -0.0434    0.9357   -0.5333 C.3       1 <0>        -0.1323 
      19 C14       -0.5067   -0.4653   -0.0923 C.3       1 <0>        -0.5903 
      20 S1        -0.3313   -0.3945    1.7077 S.o2      1 <0>         2.5602 
      21 O4         1.0429   -0.5271    2.0806 O.2       1 <0>        -0.9507 
      22 O5        -1.3657   -1.1507    2.3427 O.2       1 <0>        -0.9534 
      23 H1         3.2777    2.5652    8.3197 H         1 <0>         0.1028 
      24 H2         4.8109    1.6804    8.4743 H         1 <0>         0.0577 
      25 H3         3.6249    1.1944    7.2435 H         1 <0>         0.0578 
      26 H4         2.1062   -1.6312    9.5056 H         1 <0>         0.1309 
      27 H5        -0.2804   -2.2542    9.3230 H         1 <0>         0.1300 
      28 H6        -1.9678   -0.5129    8.7529 H         1 <0>         0.1298 
      29 H7         1.0888    2.4491    8.5652 H         1 <0>         0.1413 
      30 H8        -0.1729    3.5145    7.5788 H         1 <0>         0.0972 
      31 H9        -1.8760    3.6630    7.0935 H         1 <0>         0.0968 
      32 H10       -2.6820    1.7140    5.6163 H         1 <0>         0.4034 
      33 H11       -2.3173    0.4187    3.6918 H         1 <0>         0.0764 
      34 H12       -0.6141    0.2701    4.1772 H         1 <0>         0.0833 
      35 H13       -0.1597    2.5296    3.2741 H         1 <0>         0.0878 
      36 H14       -1.8627    2.6783    2.7886 H         1 <0>         0.0899 
      37 H15       -1.7968    2.0818    0.0830 H         1 <0>         0.0810 
      38 H16       -0.2547    2.9099    0.3895 H         1 <0>         0.0967 
      39 H17        1.0303    1.0107   -0.3751 H         1 <0>         0.1151 
      40 H18       -0.2566    1.1208   -1.5841 H         1 <0>         0.0972 
      41 H19       -1.5574   -0.6161   -0.3312 H         1 <0>         0.1443 
      42 H20        0.0868   -1.2780   -0.5059 H         1 <0>         0.1447 
@<TRIPOS>BOND
       1        1        2 1        
       2        1       23 1        
       3        1       24 1        
       4        1       25 1        
       5        2        3 1        
       6        3        8 ar       
       7        3        4 ar       
       8        4        5 ar       
       9        4       26 1        
      10        5        6 ar       
      11        5       27 1        
      12        6        7 ar       
      13        6       28 1        
      14        7        8 ar       
      15        7        9 1        
      16        8       29 1        
      17        9       10 1        
      18       10       11 1        
      19       10       30 1        
      20       10       31 1        
      21       11       12 2        
      22       11       13 am       
      23       13       14 1        
      24       13       32 1        
      25       14       15 1        
      26       14       33 1        
      27       14       34 1        
      28       15       16 1        
      29       15       35 1        
      30       15       36 1        
      31       16       20 1        
      32       16       17 1        
      33       17       18 1        
      34       17       37 1        
      35       17       38 1        
      36       18       19 1        
      37       18       39 1        
      38       18       40 1        
      39       19       20 1        
      40       19       41 1        
      41       19       42 1        
      42       20       21 2        
      43       20       22 2        

