#        1GCZ_R01_S0001_C0000_L00003_S0001_C0025_G0010_E0001.mol2
#        Tue Jun  6 09:54:57 2017
#        Descriptor:     10    23    19    10     6    14
#        Energy - RMSD - RMSD MassCentre:     -67.8372    999.9999    999.9999
#        Receptor:       1  Surface Point:     1  Conformer:     0
#        Ligand:         3  Surface Point:     1  Conformer:    25
#        BUDE Formal Charge: 0
#        ATOM Count: 58
#        Heavy ATOM Count: 30
@<TRIPOS>MOLECULE
ZINC61580633_1GCZ_R01_S0001_C0000_L00003_S0001_C0025_G0010_E0001
 58 59 0 0 0
SMALL
USER_CHARGES
@<TRIPOS>ATOM
       1 C1         1.4326   -5.1430    7.4085 C.3       1 <0>        -0.1532 
       2 C2         0.2588   -4.5449    8.1785 C.3       1 <0>        -0.1224 
       3 C3        -0.6079   -3.7223    7.2259 C.3       1 <0>        -0.1198 
       4 C4        -1.7833   -3.1234    7.9970 C.3       1 <0>         0.0610 
       5 O1        -2.5943   -2.3537    7.1055 O.3       1 <0>        -0.3878 
       6 C5        -1.8655   -1.2725    6.5183 C.3       1 <0>         0.0487 
       7 C6        -2.7835   -0.4910    5.5796 C.3       1 <0>         0.1244 
       8 N1        -2.0343    0.6203    4.9760 N.am      1 <0>        -0.7216 
       9 C7        -1.1091    0.3741    4.0528 C.2       1 <0>         0.5161 
      10 O2        -0.8801   -0.7827    3.7037 O.2       1 <0>        -0.5151 
      11 C8        -0.3395    1.5158    3.4326 C.3       1 <0>         0.0490 
      12 O3         0.5430    2.0792    4.4066 O.3       1 <0>        -0.3194 
      13 C9         1.5214    1.2936    4.9044 C.2       1 <0>         0.5417 
      14 O4         1.6327    0.1404    4.5220 O.2       1 <0>        -0.5337 
      15 C10        2.4596    1.8313    5.9146 C.2       1 <0>        -0.2559 
      16 C11        2.4231    3.2158    6.4366 C.2       1 <0>        -0.0791 
      17 C12        3.3884    3.4487    7.3289 C.2       1 <0>        -0.2585 
      18 S1         4.4086    2.0313    7.6164 S.3       1 <0>         0.3028 
      19 C13        3.4519    1.1067    6.4492 C.2       1 <0>         0.0893 
      20 N2         3.6737   -0.1985    6.0968 N.am      1 <0>        -0.6099 
      21 C14        4.6715   -0.8784    6.6544 C.2       1 <0>         0.5551 
      22 O5         5.3956   -0.3352    7.4871 O.2       1 <0>        -0.4939 
      23 C15        4.9097   -2.2883    6.2726 C.ar      1 <0>        -0.1466 
      24 C16        5.9729   -2.9654    6.8820 C.ar      1 <0>        -0.0772 
      25 C17        6.2935   -4.2760    6.5087 C.ar      1 <0>        -0.1241 
      26 C18        5.5626   -4.9308    5.5107 C.ar      1 <0>        -0.0446 
      27 C19        4.4661   -4.2758    4.9374 C.ar      1 <0>        -0.1261 
      28 C20        4.1307   -2.9758    5.3343 C.ar      1 <0>        -0.0460 
      29 C21        5.9630   -6.3213    5.0786 C.3       1 <0>        -0.0928 
      30 C22        6.9591   -6.2278    3.9264 C.3       1 <0>        -0.1485 
      31 H1         2.0354   -4.3412    6.9873 H         1 <0>         0.0567 
      32 H2         1.0556   -5.7739    6.6063 H         1 <0>         0.0554 
      33 H3         2.0422   -5.7396    8.0839 H         1 <0>         0.0557 
      34 H4        -0.3379   -5.3454    8.6108 H         1 <0>         0.0632 
      35 H5         0.6343   -3.9025    8.9722 H         1 <0>         0.0635 
      36 H6        -0.0126   -2.9210    6.7935 H         1 <0>         0.0711 
      37 H7        -0.9848   -4.3639    6.4322 H         1 <0>         0.0704 
      38 H8        -2.3800   -3.9240    8.4293 H         1 <0>         0.0498 
      39 H9        -1.4076   -2.4810    8.7906 H         1 <0>         0.0505 
      40 H10       -1.0221   -1.6664    5.9549 H         1 <0>         0.0584 
      41 H11       -1.5017   -0.6115    7.3022 H         1 <0>         0.0702 
      42 H12       -3.6268   -0.0958    6.1421 H         1 <0>         0.0872 
      43 H13       -3.1473   -1.1508    4.7949 H         1 <0>         0.0805 
      44 H14       -2.2216    1.5707    5.2619 H         1 <0>         0.4058 
      45 H15        0.2403    1.1472    2.5891 H         1 <0>         0.1008 
      46 H16       -1.0350    2.2789    3.0899 H         1 <0>         0.0999 
      47 H17        1.6816    3.9366    6.1254 H         1 <0>         0.1557 
      48 H18        3.5114    4.4011    7.8229 H         1 <0>         0.1929 
      49 H19        3.0791   -0.6447    5.4131 H         1 <0>         0.4317 
      50 H20        6.5562   -2.4720    7.6453 H         1 <0>         0.1287 
      51 H21        7.1120   -4.7904    6.9902 H         1 <0>         0.1326 
      52 H22        3.8810   -4.7886    4.1883 H         1 <0>         0.1342 
      53 H23        3.2407   -2.5441    4.9009 H         1 <0>         0.1410 
      54 H24        5.0803   -6.8672    4.7523 H         1 <0>         0.0777 
      55 H25        6.4234   -6.8420    5.9156 H         1 <0>         0.0771 
      56 H26        7.8465   -5.6926    4.2576 H         1 <0>         0.0623 
      57 H27        6.5024   -5.6945    3.0952 H         1 <0>         0.0572 
      58 H28        7.2374   -7.2297    3.6063 H         1 <0>         0.0578 
@<TRIPOS>BOND
       1        1        2 1        
       2        1       31 1        
       3        1       32 1        
       4        1       33 1        
       5        2        3 1        
       6        2       34 1        
       7        2       35 1        
       8        3        4 1        
       9        3       36 1        
      10        3       37 1        
      11        4        5 1        
      12        4       38 1        
      13        4       39 1        
      14        5        6 1        
      15        6        7 1        
      16        6       40 1        
      17        6       41 1        
      18        7        8 1        
      19        7       42 1        
      20        7       43 1        
      21        8        9 am       
      22        8       44 1        
      23        9       10 2        
      24        9       11 1        
      25       11       12 1        
      26       11       45 1        
      27       11       46 1        
      28       12       13 1        
      29       13       14 2        
      30       13       15 1        
      31       15       19 2        
      32       15       16 1        
      33       16       17 2        
      34       16       47 1        
      35       17       18 1        
      36       17       48 1        
      37       18       19 1        
      38       19       20 1        
      39       20       21 am       
      40       20       49 1        
      41       21       22 2        
      42       21       23 1        
      43       23       28 ar       
      44       23       24 ar       
      45       24       25 ar       
      46       24       50 1        
      47       25       26 ar       
      48       25       51 1        
      49       26       27 ar       
      50       26       29 1        
      51       27       28 ar       
      52       27       52 1        
      53       28       53 1        
      54       29       30 1        
      55       29       54 1        
      56       29       55 1        
      57       30       56 1        
      58       30       57 1        
      59       30       58 1        

