#        1GCZ_R01_S0001_C0000_L00014_S0001_C0020_G0010_E0001.mol2
#        Tue Jun  6 09:59:39 2017
#        Descriptor:     35    18    17     9     9    14
#        Energy - RMSD - RMSD MassCentre:     -47.5575    999.9999    999.9999
#        Receptor:       1  Surface Point:     1  Conformer:     0
#        Ligand:        14  Surface Point:     1  Conformer:    20
#        BUDE Formal Charge: 0
#        ATOM Count: 42
#        Heavy ATOM Count: 22
@<TRIPOS>MOLECULE
ZINC61597528_1GCZ_R01_S0001_C0000_L00014_S0001_C0020_G0010_E0001
 42 43 0 0 0
SMALL
USER_CHARGES
@<TRIPOS>ATOM
       1 C1         3.3730   -3.8774    5.4664 C.3       1 <0>         0.0268 
       2 O1         4.1621   -2.8667    4.8338 O.3       1 <0>        -0.3133 
       3 C2         3.6050   -1.6261    4.6685 C.ar      1 <0>         0.1677 
       4 C3         4.4261   -0.5153    4.8960 C.ar      1 <0>        -0.2433 
       5 C4         3.9502    0.7901    4.7454 C.ar      1 <0>        -0.0391 
       6 C5         2.6191    0.9993    4.3656 C.ar      1 <0>        -0.2473 
       7 C6         1.7822   -0.1025    4.1526 C.ar      1 <0>         0.1672 
       8 C7         2.2760   -1.4055    4.2881 C.ar      1 <0>        -0.1836 
       9 O2         0.4706    0.0955    3.8100 O.3       1 <0>        -0.2863 
      10 C8        -0.5137   -0.7542    4.4050 C.3       1 <0>         0.0425 
      11 C9        -0.4840   -0.5835    5.9051 C.2       1 <0>         0.5165 
      12 O3        -0.0686   -1.4937    6.6203 O.2       1 <0>        -0.5075 
      13 N1        -0.9077    0.5518    6.4533 N.am      1 <0>        -0.7277 
      14 C10       -1.4045    1.6396    5.5984 C.3       1 <0>         0.0923 
      15 C11       -1.8252    2.8207    6.4717 C.3       1 <0>         0.1538 
      16 N2        -0.6364    3.4070    7.1073 N.pl3     1 <0>        -0.9868 
      17 C12        0.4999    3.9360    6.3395 C.3       1 <0>         0.0701 
      18 C13        1.2821    4.7499    7.3870 C.3       1 <0>        -0.1323 
      19 C14        1.2181    3.9529    8.7032 C.3       1 <0>        -0.5903 
      20 S1        -0.5363    3.5248    8.8247 S.o2      1 <0>         2.5602 
      21 O4        -1.2973    4.6564    9.2552 O.2       1 <0>        -0.9507 
      22 O5        -0.6976    2.2328    9.4163 O.2       1 <0>        -0.9534 
      23 H1         2.4756   -4.0574    4.8781 H         1 <0>         0.1028 
      24 H2         3.9510   -4.7963    5.5376 H         1 <0>         0.0577 
      25 H3         3.0928   -3.5463    6.4642 H         1 <0>         0.0578 
      26 H4         5.4510   -0.6756    5.1964 H         1 <0>         0.1309 
      27 H5         4.6034    1.6317    4.9228 H         1 <0>         0.1300 
      28 H6         2.2377    2.0015    4.2367 H         1 <0>         0.1298 
      29 H7         1.5788   -2.2048    4.0850 H         1 <0>         0.1413 
      30 H8        -0.2983   -1.7908    4.1543 H         1 <0>         0.0972 
      31 H9        -1.4992   -0.4868    4.0297 H         1 <0>         0.0968 
      32 H10       -0.8884    0.6670    7.4564 H         1 <0>         0.4034 
      33 H11       -2.2608    1.2896    5.0258 H         1 <0>         0.0764 
      34 H12       -0.6166    1.9553    4.9176 H         1 <0>         0.0833 
      35 H13       -2.5143    2.4769    7.2402 H         1 <0>         0.0878 
      36 H14       -2.3140    3.5724    5.8553 H         1 <0>         0.0899 
      37 H15        1.0856    3.0933    5.9781 H         1 <0>         0.0810 
      38 H16        0.1940    4.5533    5.4973 H         1 <0>         0.0967 
      39 H17        0.7864    5.7065    7.5373 H         1 <0>         0.1151 
      40 H18        2.3079    4.9322    7.0732 H         1 <0>         0.0972 
      41 H19        1.7934    3.0327    8.6244 H         1 <0>         0.1443 
      42 H20        1.5390    4.5157    9.5773 H         1 <0>         0.1447 
@<TRIPOS>BOND
       1        1        2 1        
       2        1       23 1        
       3        1       24 1        
       4        1       25 1        
       5        2        3 1        
       6        3        8 ar       
       7        3        4 ar       
       8        4        5 ar       
       9        4       26 1        
      10        5        6 ar       
      11        5       27 1        
      12        6        7 ar       
      13        6       28 1        
      14        7        8 ar       
      15        7        9 1        
      16        8       29 1        
      17        9       10 1        
      18       10       11 1        
      19       10       30 1        
      20       10       31 1        
      21       11       12 2        
      22       11       13 am       
      23       13       14 1        
      24       13       32 1        
      25       14       15 1        
      26       14       33 1        
      27       14       34 1        
      28       15       16 1        
      29       15       35 1        
      30       15       36 1        
      31       16       20 1        
      32       16       17 1        
      33       17       18 1        
      34       17       37 1        
      35       17       38 1        
      36       18       19 1        
      37       18       39 1        
      38       18       40 1        
      39       19       20 1        
      40       19       41 1        
      41       19       42 1        
      42       20       21 2        
      43       20       22 2        

