#        1GCZ_R01_S0001_C0000_L00014_S0001_C0020_G0010_E0001.mol2
#        Tue Jun  6 14:15:24 2017
#        Descriptor:     25    31    19     7     9    15
#        Energy - RMSD - RMSD MassCentre:     -48.0130    999.9999    999.9999
#        Receptor:       1  Surface Point:     1  Conformer:     0
#        Ligand:        14  Surface Point:     1  Conformer:    20
#        BUDE Formal Charge: 0
#        ATOM Count: 42
#        Heavy ATOM Count: 22
@<TRIPOS>MOLECULE
ZINC61597528_1GCZ_R01_S0001_C0000_L00014_S0001_C0020_G0010_E0001
 42 43 0 0 0
SMALL
USER_CHARGES
@<TRIPOS>ATOM
       1 C1         0.2757    1.4657    1.7217 C.3       1 <0>         0.0268 
       2 O1        -0.7212    0.4575    1.9071 O.3       1 <0>        -0.3133 
       3 C2        -0.9895    0.0466    3.1861 C.ar      1 <0>         0.1677 
       4 C3        -2.3294   -0.1801    3.5225 C.ar      1 <0>        -0.2433 
       5 C4        -2.7011   -0.6085    4.7998 C.ar      1 <0>        -0.0391 
       6 C5        -1.7157   -0.8101    5.7736 C.ar      1 <0>        -0.2473 
       7 C6        -0.3738   -0.5695    5.4557 C.ar      1 <0>         0.1672 
       8 C7        -0.0122   -0.1591    4.1670 C.ar      1 <0>        -0.1836 
       9 O2         0.5925   -0.7359    6.4125 O.3       1 <0>        -0.2863 
      10 C8         1.6513    0.2235    6.4706 C.3       1 <0>         0.0425 
      11 C9         1.0750    1.5914    6.7480 C.2       1 <0>         0.5165 
      12 O3         1.0875    2.4541    5.8716 O.2       1 <0>        -0.5075 
      13 N1         0.5538    1.8635    7.9411 N.am      1 <0>        -0.7277 
      14 C10        0.5392    0.8324    8.9886 C.3       1 <0>         0.0923 
      15 C11       -0.1095    1.3990   10.2507 C.3       1 <0>         0.1538 
      16 N2        -1.5368    1.6448    9.9990 N.pl3     1 <0>        -0.9868 
      17 C12       -2.4671    0.5862    9.5810 C.3       1 <0>         0.0701 
      18 C13       -3.8498    1.2247    9.8095 C.3       1 <0>        -0.1323 
      19 C14       -3.7276    2.7028    9.3948 C.3       1 <0>        -0.5903 
      20 S1        -2.1999    3.2217   10.2152 S.o2      1 <0>         2.5602 
      21 O4        -2.4314    3.4383   11.6097 O.2       1 <0>        -0.9507 
      22 O5        -1.4932    4.1672    9.4079 O.2       1 <0>        -0.9534 
      23 H1         1.2304    1.1044    2.0982 H         1 <0>         0.1028 
      24 H2         0.3664    1.6947    0.6620 H         1 <0>         0.0577 
      25 H3        -0.0123    2.3637    2.2641 H         1 <0>         0.0578 
      26 H4        -3.0910   -0.0176    2.7742 H         1 <0>         0.1309 
      27 H5        -3.7410   -0.7806    5.0352 H         1 <0>         0.1300 
      28 H6        -1.9852   -1.1488    6.7631 H         1 <0>         0.1298 
      29 H7         1.0433   -0.0159    3.9890 H         1 <0>         0.1413 
      30 H8         2.1798    0.2393    5.5197 H         1 <0>         0.0972 
      31 H9         2.3427   -0.0462    7.2662 H         1 <0>         0.0968 
      32 H10        0.1683    2.7781    8.1277 H         1 <0>         0.4034 
      33 H11        1.5591    0.5266    9.2118 H         1 <0>         0.0764 
      34 H12       -0.0308   -0.0279    8.6437 H         1 <0>         0.0833 
      35 H13        0.3769    2.3342   10.5205 H         1 <0>         0.0878 
      36 H14       -0.0031    0.6859   11.0655 H         1 <0>         0.0899 
      37 H15       -2.2967    0.3834    8.5258 H         1 <0>         0.0810 
      38 H16       -2.3496   -0.3330   10.1512 H         1 <0>         0.0967 
      39 H17       -4.0912    1.1815   10.8694 H         1 <0>         0.1151 
      40 H18       -4.6294    0.7104    9.2513 H         1 <0>         0.0972 
      41 H19       -3.5889    2.7907    8.3192 H         1 <0>         0.1443 
      42 H20       -4.5645    3.3217    9.7113 H         1 <0>         0.1447 
@<TRIPOS>BOND
       1        1        2 1        
       2        1       23 1        
       3        1       24 1        
       4        1       25 1        
       5        2        3 1        
       6        3        8 ar       
       7        3        4 ar       
       8        4        5 ar       
       9        4       26 1        
      10        5        6 ar       
      11        5       27 1        
      12        6        7 ar       
      13        6       28 1        
      14        7        8 ar       
      15        7        9 1        
      16        8       29 1        
      17        9       10 1        
      18       10       11 1        
      19       10       30 1        
      20       10       31 1        
      21       11       12 2        
      22       11       13 am       
      23       13       14 1        
      24       13       32 1        
      25       14       15 1        
      26       14       33 1        
      27       14       34 1        
      28       15       16 1        
      29       15       35 1        
      30       15       36 1        
      31       16       20 1        
      32       16       17 1        
      33       17       18 1        
      34       17       37 1        
      35       17       38 1        
      36       18       19 1        
      37       18       39 1        
      38       18       40 1        
      39       19       20 1        
      40       19       41 1        
      41       19       42 1        
      42       20       21 2        
      43       20       22 2        

