#        1GCZ_R01_S0001_C0000_L00014_S0001_C0021_G0010_E0001.mol2
#        Tue Jun  6 09:59:40 2017
#        Descriptor:     30     8     5     8     9    12
#        Energy - RMSD - RMSD MassCentre:     -61.8807    999.9999    999.9999
#        Receptor:       1  Surface Point:     1  Conformer:     0
#        Ligand:        14  Surface Point:     1  Conformer:    21
#        BUDE Formal Charge: 0
#        ATOM Count: 42
#        Heavy ATOM Count: 22
@<TRIPOS>MOLECULE
ZINC61597528_1GCZ_R01_S0001_C0000_L00014_S0001_C0021_G0010_E0001
 42 43 0 0 0
SMALL
USER_CHARGES
@<TRIPOS>ATOM
       1 C1        -0.0821    2.4967   -1.2786 C.3       1 <0>         0.0268 
       2 O1        -0.5619    1.2072   -1.6684 O.3       1 <0>        -0.3133 
       3 C2        -0.5820    0.2162   -0.7225 C.ar      1 <0>         0.1677 
       4 C3        -0.1930   -1.0669   -1.1251 C.ar      1 <0>        -0.2433 
       5 C4        -0.1733   -2.1403   -0.2304 C.ar      1 <0>        -0.0391 
       6 C5        -0.5580   -1.9363    1.1001 C.ar      1 <0>        -0.2473 
       7 C6        -0.9666   -0.6621    1.5114 C.ar      1 <0>         0.1672 
       8 C7        -0.9638    0.4093    0.6103 C.ar      1 <0>        -0.1836 
       9 O2        -1.3730   -0.4622    2.8044 O.3       1 <0>        -0.2863 
      10 C8        -0.6407   -1.1134    3.8458 C.3       1 <0>         0.0425 
      11 C9        -1.2489   -0.7626    5.1826 C.2       1 <0>         0.5165 
      12 O3        -1.8507   -1.6185    5.8290 O.2       1 <0>        -0.5075 
      13 N1        -1.1339    0.4729    5.6614 N.am      1 <0>        -0.7277 
      14 C10       -0.4147    1.4961    4.8888 C.3       1 <0>         0.0923 
      15 C11       -0.4288    2.8168    5.6573 C.3       1 <0>         0.1538 
      16 N2         0.3821    2.6821    6.8760 N.pl3     1 <0>        -0.9868 
      17 C12       -0.2018    2.6645    8.2249 C.3       1 <0>         0.0701 
      18 C13        1.0255    2.8306    9.1401 C.3       1 <0>        -0.1323 
      19 C14        2.1636    2.0095    8.5062 C.3       1 <0>        -0.5903 
      20 S1         2.0944    2.5084    6.7677 S.o2      1 <0>         2.5602 
      21 O4         2.4240    1.4058    5.9188 O.2       1 <0>        -0.9507 
      22 O5         2.6798    3.8014    6.5932 O.2       1 <0>        -0.9534 
      23 H1         0.9513    2.4137   -0.9482 H         1 <0>         0.1028 
      24 H2        -0.1389    3.1756   -2.1268 H         1 <0>         0.0577 
      25 H3        -0.6940    2.8799   -0.4648 H         1 <0>         0.0578 
      26 H4         0.0968   -1.2268   -2.1532 H         1 <0>         0.1309 
      27 H5         0.1344   -3.1206   -0.5630 H         1 <0>         0.1300 
      28 H6        -0.5406   -2.7533    1.8063 H         1 <0>         0.1298 
      29 H7        -1.2689    1.3672    1.0051 H         1 <0>         0.1413 
      30 H8         0.3958   -0.7836    3.8221 H         1 <0>         0.0972 
      31 H9        -0.6827   -2.1908    3.7005 H         1 <0>         0.0968 
      32 H10       -1.5404    0.7088    6.5554 H         1 <0>         0.4034 
      33 H11       -0.9014    1.6327    3.9254 H         1 <0>         0.0764 
      34 H12        0.6143    1.1782    4.7343 H         1 <0>         0.0833 
      35 H13       -1.4519    3.0680    5.9291 H         1 <0>         0.0878 
      36 H14       -0.0148    3.6052    5.0323 H         1 <0>         0.0899 
      37 H15       -0.8762    3.5137    8.3126 H         1 <0>         0.0810 
      38 H16       -0.7438    1.7463    8.4420 H         1 <0>         0.0967 
      39 H17        0.7996    2.4113   10.1183 H         1 <0>         0.1151 
      40 H18        1.2997    3.8764    9.2621 H         1 <0>         0.0972 
      41 H19        3.1272    2.3088    8.9133 H         1 <0>         0.1443 
      42 H20        2.0397    0.9330    8.6035 H         1 <0>         0.1447 
@<TRIPOS>BOND
       1        1        2 1        
       2        1       23 1        
       3        1       24 1        
       4        1       25 1        
       5        2        3 1        
       6        3        8 ar       
       7        3        4 ar       
       8        4        5 ar       
       9        4       26 1        
      10        5        6 ar       
      11        5       27 1        
      12        6        7 ar       
      13        6       28 1        
      14        7        8 ar       
      15        7        9 1        
      16        8       29 1        
      17        9       10 1        
      18       10       11 1        
      19       10       30 1        
      20       10       31 1        
      21       11       12 2        
      22       11       13 am       
      23       13       14 1        
      24       13       32 1        
      25       14       15 1        
      26       14       33 1        
      27       14       34 1        
      28       15       16 1        
      29       15       35 1        
      30       15       36 1        
      31       16       20 1        
      32       16       17 1        
      33       17       18 1        
      34       17       37 1        
      35       17       38 1        
      36       18       19 1        
      37       18       39 1        
      38       18       40 1        
      39       19       20 1        
      40       19       41 1        
      41       19       42 1        
      42       20       21 2        
      43       20       22 2        

