#        1GCZ_R01_S0001_C0000_L00014_S0001_C0021_G0010_E0001.mol2
#        Tue Jun  6 14:15:25 2017
#        Descriptor:     24     4     2    11     9    13
#        Energy - RMSD - RMSD MassCentre:     -59.6539    999.9999    999.9999
#        Receptor:       1  Surface Point:     1  Conformer:     0
#        Ligand:        14  Surface Point:     1  Conformer:    21
#        BUDE Formal Charge: 0
#        ATOM Count: 42
#        Heavy ATOM Count: 22
@<TRIPOS>MOLECULE
ZINC61597528_1GCZ_R01_S0001_C0000_L00014_S0001_C0021_G0010_E0001
 42 43 0 0 0
SMALL
USER_CHARGES
@<TRIPOS>ATOM
       1 C1         0.9482   -1.0389    0.3370 C.3       1 <0>         0.0268 
       2 O1        -0.3757   -0.6521    0.7146 O.3       1 <0>        -0.3133 
       3 C2        -0.5736   -0.2029    1.9937 C.ar      1 <0>         0.1677 
       4 C3        -1.7358   -0.6225    2.6516 C.ar      1 <0>        -0.2433 
       5 C4        -2.0209   -0.2235    3.9603 C.ar      1 <0>        -0.0391 
       6 C5        -1.1310    0.6225    4.6327 C.ar      1 <0>        -0.2473 
       7 C6         0.0259    1.0642    3.9798 C.ar      1 <0>         0.1672 
       8 C7         0.3099    0.6422    2.6756 C.ar      1 <0>        -0.1836 
       9 O2         0.8858    1.9163    4.6213 O.3       1 <0>        -0.2863 
      10 C8         1.1510    1.6838    6.0071 C.3       1 <0>         0.0425 
      11 C9         2.1160    2.7278    6.5160 C.2       1 <0>         0.5165 
      12 O3         1.7312    3.5899    7.3042 O.2       1 <0>        -0.5075 
      13 N1         3.3829    2.7151    6.1115 N.am      1 <0>        -0.7277 
      14 C10        3.8429    1.6848    5.1693 C.3       1 <0>         0.0923 
      15 C11        5.3266    1.8952    4.8703 C.3       1 <0>         0.1538 
      16 N2         6.1133    1.6206    6.0813 N.pl3     1 <0>        -0.9868 
      17 C12        6.8052    2.6732    6.8389 C.3       1 <0>         0.0701 
      18 C13        7.7198    1.8775    7.7887 C.3       1 <0>        -0.1323 
      19 C14        6.9167    0.6459    8.2466 C.3       1 <0>        -0.5903 
      20 S1         6.2376    0.0130    6.6928 S.o2      1 <0>         2.5602 
      21 O4         4.9337   -0.5346    6.9047 O.2       1 <0>        -0.9507 
      22 O5         7.2428   -0.6860    5.9539 O.2       1 <0>        -0.9534 
      23 H1         1.2795   -1.8602    0.9692 H         1 <0>         0.1028 
      24 H2         0.9493   -1.3577   -0.7031 H         1 <0>         0.0577 
      25 H3         1.6211   -0.1927    0.4584 H         1 <0>         0.0578 
      26 H4        -2.4267   -1.2692    2.1309 H         1 <0>         0.1309 
      27 H5        -2.9221   -0.5633    4.4489 H         1 <0>         0.1300 
      28 H6        -1.3323    0.9337    5.6471 H         1 <0>         0.1298 
      29 H7         1.2317    1.0049    2.2454 H         1 <0>         0.1413 
      30 H8         1.5879    0.6954    6.1326 H         1 <0>         0.0972 
      31 H9         0.2219    1.7446    6.5699 H         1 <0>         0.0968 
      32 H10        4.0293    3.4130    6.4511 H         1 <0>         0.4034 
      33 H11        3.2735    1.7574    4.2451 H         1 <0>         0.0764 
      34 H12        3.6983    0.7000    5.6088 H         1 <0>         0.0833 
      35 H13        5.4916    2.9239    4.5568 H         1 <0>         0.0878 
      36 H14        5.6366    1.2192    4.0761 H         1 <0>         0.0899 
      37 H15        7.3874    3.2674    6.1378 H         1 <0>         0.0810 
      38 H16        6.1240    3.3214    7.3862 H         1 <0>         0.0967 
      39 H17        7.9446    2.4878    8.6609 H         1 <0>         0.1151 
      40 H18        8.6544    1.5961    7.3079 H         1 <0>         0.0972 
      41 H19        7.5769   -0.1092    8.6680 H         1 <0>         0.1443 
      42 H20        6.1195    0.8745    8.9509 H         1 <0>         0.1447 
@<TRIPOS>BOND
       1        1        2 1        
       2        1       23 1        
       3        1       24 1        
       4        1       25 1        
       5        2        3 1        
       6        3        8 ar       
       7        3        4 ar       
       8        4        5 ar       
       9        4       26 1        
      10        5        6 ar       
      11        5       27 1        
      12        6        7 ar       
      13        6       28 1        
      14        7        8 ar       
      15        7        9 1        
      16        8       29 1        
      17        9       10 1        
      18       10       11 1        
      19       10       30 1        
      20       10       31 1        
      21       11       12 2        
      22       11       13 am       
      23       13       14 1        
      24       13       32 1        
      25       14       15 1        
      26       14       33 1        
      27       14       34 1        
      28       15       16 1        
      29       15       35 1        
      30       15       36 1        
      31       16       20 1        
      32       16       17 1        
      33       17       18 1        
      34       17       37 1        
      35       17       38 1        
      36       18       19 1        
      37       18       39 1        
      38       18       40 1        
      39       19       20 1        
      40       19       41 1        
      41       19       42 1        
      42       20       21 2        
      43       20       22 2        

