#        1GCZ_R01_S0001_C0000_L00014_S0001_C0022_G0010_E0001.mol2
#        Tue Jun  6 09:59:41 2017
#        Descriptor:     26    14     2     8     8    14
#        Energy - RMSD - RMSD MassCentre:     -57.4681    999.9999    999.9999
#        Receptor:       1  Surface Point:     1  Conformer:     0
#        Ligand:        14  Surface Point:     1  Conformer:    22
#        BUDE Formal Charge: 0
#        ATOM Count: 42
#        Heavy ATOM Count: 22
@<TRIPOS>MOLECULE
ZINC61597528_1GCZ_R01_S0001_C0000_L00014_S0001_C0022_G0010_E0001
 42 43 0 0 0
SMALL
USER_CHARGES
@<TRIPOS>ATOM
       1 C1         0.6595   -0.7546    0.6294 C.3       1 <0>         0.0268 
       2 O1        -0.7006   -0.4219    0.9202 O.3       1 <0>        -0.3133 
       3 C2        -1.0007    0.0056    2.1866 C.ar      1 <0>         0.1677 
       4 C3        -2.1875   -0.4647    2.7612 C.ar      1 <0>        -0.2433 
       5 C4        -2.5747   -0.0908    4.0510 C.ar      1 <0>        -0.0391 
       6 C5        -1.7649    0.7808    4.7889 C.ar      1 <0>        -0.2473 
       7 C6        -0.5846    1.2728    4.2191 C.ar      1 <0>         0.1672 
       8 C7        -0.1979    0.8758    2.9335 C.ar      1 <0>        -0.1836 
       9 O2         0.1972    2.1495    4.9241 O.3       1 <0>        -0.2863 
      10 C8         1.6163    1.9865    4.8565 C.3       1 <0>         0.0425 
      11 C9         1.9920    0.6266    5.3948 C.2       1 <0>         0.5165 
      12 O3         2.4124   -0.2425    4.6330 O.2       1 <0>        -0.5075 
      13 N1         1.8681    0.3686    6.6937 N.am      1 <0>        -0.7277 
      14 C10        1.3655    1.4075    7.6043 C.3       1 <0>         0.0923 
      15 C11        1.3209    0.8567    9.0288 C.3       1 <0>         0.1538 
      16 N2         0.2954   -0.1929    9.1155 N.pl3     1 <0>        -0.9868 
      17 C12       -1.1405    0.1016    9.2255 C.3       1 <0>         0.0701 
      18 C13       -1.8012   -1.2536    8.9118 C.3       1 <0>        -0.1323 
      19 C14       -0.9244   -2.3352    9.5700 C.3       1 <0>        -0.5903 
      20 S1         0.7460   -1.8565    9.0635 S.o2      1 <0>         2.5602 
      21 O4         0.9808   -2.2292    7.7030 O.2       1 <0>        -0.9507 
      22 O5         1.6866   -2.1437   10.1017 O.2       1 <0>        -0.9534 
      23 H1         0.9789   -1.5696    1.2755 H         1 <0>         0.1028 
      24 H2         0.7424   -1.0619   -0.4110 H         1 <0>         0.0577 
      25 H3         1.2899    0.1149    0.8027 H         1 <0>         0.0578 
      26 H4        -2.8168   -1.1311    2.1899 H         1 <0>         0.1309 
      27 H5        -3.4930   -0.4695    4.4751 H         1 <0>         0.1300 
      28 H6        -2.0454    1.0731    5.7900 H         1 <0>         0.1298 
      29 H7         0.7362    1.2776    2.5694 H         1 <0>         0.1413 
      30 H8         2.0995    2.7579    5.4525 H         1 <0>         0.0972 
      31 H9         1.9425    2.0691    3.8219 H         1 <0>         0.0968 
      32 H10        2.1190   -0.5405    7.0549 H         1 <0>         0.4034 
      33 H11        0.3642    1.7044    7.2994 H         1 <0>         0.0764 
      34 H12        2.0266    2.2710    7.5705 H         1 <0>         0.0833 
      35 H13        1.0764    1.6597    9.7211 H         1 <0>         0.0878 
      36 H14        2.2910    0.4373    9.2867 H         1 <0>         0.0899 
      37 H15       -1.3448    0.4118   10.2482 H         1 <0>         0.0810 
      38 H16       -1.4696    0.8780    8.5379 H         1 <0>         0.0967 
      39 H17       -1.7958   -1.4117    7.8355 H         1 <0>         0.1151 
      40 H18       -2.8289   -1.2938    9.2668 H         1 <0>         0.0972 
      41 H19       -0.9873   -2.2742   10.6545 H         1 <0>         0.1443 
      42 H20       -1.1511   -3.3479    9.2430 H         1 <0>         0.1447 
@<TRIPOS>BOND
       1        1        2 1        
       2        1       23 1        
       3        1       24 1        
       4        1       25 1        
       5        2        3 1        
       6        3        8 ar       
       7        3        4 ar       
       8        4        5 ar       
       9        4       26 1        
      10        5        6 ar       
      11        5       27 1        
      12        6        7 ar       
      13        6       28 1        
      14        7        8 ar       
      15        7        9 1        
      16        8       29 1        
      17        9       10 1        
      18       10       11 1        
      19       10       30 1        
      20       10       31 1        
      21       11       12 2        
      22       11       13 am       
      23       13       14 1        
      24       13       32 1        
      25       14       15 1        
      26       14       33 1        
      27       14       34 1        
      28       15       16 1        
      29       15       35 1        
      30       15       36 1        
      31       16       20 1        
      32       16       17 1        
      33       17       18 1        
      34       17       37 1        
      35       17       38 1        
      36       18       19 1        
      37       18       39 1        
      38       18       40 1        
      39       19       20 1        
      40       19       41 1        
      41       19       42 1        
      42       20       21 2        
      43       20       22 2        

