#        1GCZ_R01_S0001_C0000_L00014_S0001_C0022_G0010_E0001.mol2
#        Tue Jun  6 14:15:27 2017
#        Descriptor:     35    16    26    10     9    14
#        Energy - RMSD - RMSD MassCentre:     -47.9819    999.9999    999.9999
#        Receptor:       1  Surface Point:     1  Conformer:     0
#        Ligand:        14  Surface Point:     1  Conformer:    22
#        BUDE Formal Charge: 0
#        ATOM Count: 42
#        Heavy ATOM Count: 22
@<TRIPOS>MOLECULE
ZINC61597528_1GCZ_R01_S0001_C0000_L00014_S0001_C0022_G0010_E0001
 42 43 0 0 0
SMALL
USER_CHARGES
@<TRIPOS>ATOM
       1 C1        -2.4867   -2.0918    5.6028 C.3       1 <0>         0.0268 
       2 O1        -2.7821   -0.7402    5.2409 O.3       1 <0>        -0.3133 
       3 C2        -1.7330    0.1260    5.0810 C.ar      1 <0>         0.1677 
       4 C3        -1.8896    1.4263    5.5754 C.ar      1 <0>        -0.2433 
       5 C4        -0.8724    2.3785    5.4663 C.ar      1 <0>        -0.0391 
       6 C5         0.3318    2.0328    4.8416 C.ar      1 <0>        -0.2473 
       7 C6         0.4947    0.7413    4.3266 C.ar      1 <0>         0.1672 
       8 C7        -0.5244   -0.2094    4.4591 C.ar      1 <0>        -0.1836 
       9 O2         1.6591    0.4055    3.6876 O.3       1 <0>        -0.2863 
      10 C8         2.2122   -0.8893    3.9380 C.3       1 <0>         0.0425 
      11 C9         2.5343   -1.0224    5.4073 C.2       1 <0>         0.5165 
      12 O3         1.8723   -1.7780    6.1167 O.2       1 <0>        -0.5075 
      13 N1         3.5346   -0.3220    5.9345 N.am      1 <0>        -0.7277 
      14 C10        4.3258    0.5812    5.0863 C.3       1 <0>         0.0923 
      15 C11        5.4030    1.2589    5.9319 C.3       1 <0>         0.1538 
      16 N2         4.7678    2.1701    6.8948 N.pl3     1 <0>        -0.9868 
      17 C12        4.2737    3.5040    6.5245 C.3       1 <0>         0.0701 
      18 C13        3.3910    3.8961    7.7240 C.3       1 <0>        -0.1323 
      19 C14        4.1091    3.3842    8.9866 C.3       1 <0>        -0.5903 
      20 S1         4.5473    1.6871    8.5353 S.o2      1 <0>         2.5602 
      21 O4         3.4000    0.8373    8.6164 O.2       1 <0>        -0.9507 
      22 O5         5.8034    1.3226    9.1136 O.2       1 <0>        -0.9534 
      23 H1        -1.9727   -2.1058    6.5616 H         1 <0>         0.1028 
      24 H2        -3.4133   -2.6568    5.6792 H         1 <0>         0.0577 
      25 H3        -1.8500   -2.5393    4.8426 H         1 <0>         0.0578 
      26 H4        -2.8211    1.6962    6.0507 H         1 <0>         0.1309 
      27 H5        -1.0147    3.3745    5.8587 H         1 <0>         0.1300 
      28 H6         1.1310    2.7542    4.7563 H         1 <0>         0.1298 
      29 H7        -0.3181   -1.1909    4.0585 H         1 <0>         0.1413 
      30 H8         3.1223   -1.0146    3.3551 H         1 <0>         0.0972 
      31 H9         1.4912   -1.6532    3.6547 H         1 <0>         0.0968 
      32 H10        3.7509   -0.4102    6.9170 H         1 <0>         0.4034 
      33 H11        3.6742    1.3385    4.6553 H         1 <0>         0.0764 
      34 H12        4.7972    0.0107    4.2888 H         1 <0>         0.0833 
      35 H13        6.0706    1.8241    5.2847 H         1 <0>         0.0878 
      36 H14        5.9718    0.5032    6.4695 H         1 <0>         0.0899 
      37 H15        5.1303    4.1685    6.4323 H         1 <0>         0.0810 
      38 H16        3.7107    3.5060    5.5935 H         1 <0>         0.0967 
      39 H17        2.4323    3.3886    7.6415 H         1 <0>         0.1151 
      40 H18        3.2171    4.9694    7.7639 H         1 <0>         0.0972 
      41 H19        5.0263    3.9429    9.1610 H         1 <0>         0.1443 
      42 H20        3.4920    3.3977    9.8826 H         1 <0>         0.1447 
@<TRIPOS>BOND
       1        1        2 1        
       2        1       23 1        
       3        1       24 1        
       4        1       25 1        
       5        2        3 1        
       6        3        8 ar       
       7        3        4 ar       
       8        4        5 ar       
       9        4       26 1        
      10        5        6 ar       
      11        5       27 1        
      12        6        7 ar       
      13        6       28 1        
      14        7        8 ar       
      15        7        9 1        
      16        8       29 1        
      17        9       10 1        
      18       10       11 1        
      19       10       30 1        
      20       10       31 1        
      21       11       12 2        
      22       11       13 am       
      23       13       14 1        
      24       13       32 1        
      25       14       15 1        
      26       14       33 1        
      27       14       34 1        
      28       15       16 1        
      29       15       35 1        
      30       15       36 1        
      31       16       20 1        
      32       16       17 1        
      33       17       18 1        
      34       17       37 1        
      35       17       38 1        
      36       18       19 1        
      37       18       39 1        
      38       18       40 1        
      39       19       20 1        
      40       19       41 1        
      41       19       42 1        
      42       20       21 2        
      43       20       22 2        

