#        1GCZ_R01_S0001_C0000_L00014_S0001_C0023_G0010_E0001.mol2
#        Tue Jun  6 14:15:29 2017
#        Descriptor:     25     5    35    10     8    11
#        Energy - RMSD - RMSD MassCentre:     -61.0469    999.9999    999.9999
#        Receptor:       1  Surface Point:     1  Conformer:     0
#        Ligand:        14  Surface Point:     1  Conformer:    23
#        BUDE Formal Charge: 0
#        ATOM Count: 42
#        Heavy ATOM Count: 22
@<TRIPOS>MOLECULE
ZINC61597528_1GCZ_R01_S0001_C0000_L00014_S0001_C0023_G0010_E0001
 42 43 0 0 0
SMALL
USER_CHARGES
@<TRIPOS>ATOM
       1 C1         0.7207   -0.6502   -3.3696 C.3       1 <0>         0.0268 
       2 O1         1.2899   -0.6691   -2.0580 O.3       1 <0>        -0.3133 
       3 C2         0.5290   -0.1985   -1.0205 C.ar      1 <0>         0.1677 
       4 C3        -0.2374    0.9497   -1.2524 C.ar      1 <0>        -0.2433 
       5 C4        -1.0510    1.5000   -0.2581 C.ar      1 <0>        -0.0391 
       6 C5        -1.0996    0.8979    1.0048 C.ar      1 <0>        -0.2473 
       7 C6        -0.3241   -0.2403    1.2556 C.ar      1 <0>         0.1672 
       8 C7         0.4722   -0.7931    0.2456 C.ar      1 <0>        -0.1836 
       9 O2        -0.3438   -0.8169    2.4982 O.3       1 <0>        -0.2863 
      10 C8        -0.3487    0.0464    3.6381 C.3       1 <0>         0.0425 
      11 C9         0.9020    0.8925    3.6330 C.2       1 <0>         0.5165 
      12 O3         0.8277    2.1000    3.4110 O.2       1 <0>        -0.5075 
      13 N1         2.0848    0.3316    3.8684 N.am      1 <0>        -0.7277 
      14 C10        3.3024    1.1554    3.8633 C.3       1 <0>         0.0923 
      15 C11        4.5143    0.2730    4.1589 C.3       1 <0>         0.1538 
      16 N2         4.4403   -0.2114    5.5448 N.pl3     1 <0>        -0.9868 
      17 C12        4.8105    0.6179    6.7007 C.3       1 <0>         0.0701 
      18 C13        4.2241   -0.1610    7.8928 C.3       1 <0>        -0.1323 
      19 C14        4.4417   -1.6559    7.5935 C.3       1 <0>        -0.5903 
      20 S1         3.8760   -1.8057    5.8807 S.o2      1 <0>         2.5602 
      21 O4         2.4471   -1.8111    5.8260 O.2       1 <0>        -0.9507 
      22 O5         4.6657   -2.7658    5.1738 O.2       1 <0>        -0.9534 
      23 H1         0.4850    0.3751   -3.6472 H         1 <0>         0.1028 
      24 H2         1.4337   -1.0640   -4.0797 H         1 <0>         0.0577 
      25 H3        -0.1888   -1.2471   -3.3783 H         1 <0>         0.0578 
      26 H4        -0.1948    1.4193   -2.2240 H         1 <0>         0.1309 
      27 H5        -1.6366    2.3844   -0.4615 H         1 <0>         0.1300 
      28 H6        -1.7294    1.3057    1.7817 H         1 <0>         0.1298 
      29 H7         1.0241   -1.6843    0.5054 H         1 <0>         0.1413 
      30 H8        -0.3774   -0.5515    4.5467 H         1 <0>         0.0972 
      31 H9        -1.2231    0.6927    3.6007 H         1 <0>         0.0968 
      32 H10        2.1470   -0.6597    4.0507 H         1 <0>         0.4034 
      33 H11        3.2219    1.9273    4.6258 H         1 <0>         0.0764 
      34 H12        3.4225    1.6201    2.8869 H         1 <0>         0.0833 
      35 H13        5.4260    0.8518    4.0259 H         1 <0>         0.0878 
      36 H14        4.5203   -0.5759    3.4785 H         1 <0>         0.0899 
      37 H15        5.8964    0.6594    6.7533 H         1 <0>         0.0810 
      38 H16        4.4108    1.6283    6.6449 H         1 <0>         0.0967 
      39 H17        3.1544    0.0283    7.9502 H         1 <0>         0.1151 
      40 H18        4.6834    0.1349    8.8337 H         1 <0>         0.0972 
      41 H19        5.5000   -1.9059    7.6308 H         1 <0>         0.1443 
      42 H20        3.8811   -2.3235    8.2445 H         1 <0>         0.1447 
@<TRIPOS>BOND
       1        1        2 1        
       2        1       23 1        
       3        1       24 1        
       4        1       25 1        
       5        2        3 1        
       6        3        8 ar       
       7        3        4 ar       
       8        4        5 ar       
       9        4       26 1        
      10        5        6 ar       
      11        5       27 1        
      12        6        7 ar       
      13        6       28 1        
      14        7        8 ar       
      15        7        9 1        
      16        8       29 1        
      17        9       10 1        
      18       10       11 1        
      19       10       30 1        
      20       10       31 1        
      21       11       12 2        
      22       11       13 am       
      23       13       14 1        
      24       13       32 1        
      25       14       15 1        
      26       14       33 1        
      27       14       34 1        
      28       15       16 1        
      29       15       35 1        
      30       15       36 1        
      31       16       20 1        
      32       16       17 1        
      33       17       18 1        
      34       17       37 1        
      35       17       38 1        
      36       18       19 1        
      37       18       39 1        
      38       18       40 1        
      39       19       20 1        
      40       19       41 1        
      41       19       42 1        
      42       20       21 2        
      43       20       22 2        

