#        1GCZ_R01_S0001_C0000_L00014_S0001_C0024_G0010_E0001.mol2
#        Tue Jun  6 09:59:42 2017
#        Descriptor:      6    19    21    10     8    11
#        Energy - RMSD - RMSD MassCentre:     -56.3913    999.9999    999.9999
#        Receptor:       1  Surface Point:     1  Conformer:     0
#        Ligand:        14  Surface Point:     1  Conformer:    24
#        BUDE Formal Charge: 0
#        ATOM Count: 42
#        Heavy ATOM Count: 22
@<TRIPOS>MOLECULE
ZINC61597528_1GCZ_R01_S0001_C0000_L00014_S0001_C0024_G0010_E0001
 42 43 0 0 0
SMALL
USER_CHARGES
@<TRIPOS>ATOM
       1 C1         0.7545   -0.6425   -3.3125 C.3       1 <0>         0.0268 
       2 O1         1.0151   -1.0348   -1.9624 O.3       1 <0>        -0.3133 
       3 C2         0.3373   -0.3879   -0.9630 C.ar      1 <0>         0.1677 
       4 C3         0.1644    0.9953   -1.0921 C.ar      1 <0>        -0.2433 
       5 C4        -0.5200    1.7407   -0.1282 C.ar      1 <0>        -0.0391 
       6 C5        -1.0413    1.0963    0.9999 C.ar      1 <0>        -0.2473 
       7 C6        -0.8597   -0.2836    1.1504 C.ar      1 <0>         0.1672 
       8 C7        -0.1889   -1.0224    0.1685 C.ar      1 <0>        -0.1836 
       9 O2        -1.3411   -0.9156    2.2665 O.3       1 <0>        -0.2863 
      10 C8        -1.2013   -0.2522    3.5256 C.3       1 <0>         0.0425 
      11 C9         0.2638   -0.0317    3.8173 C.2       1 <0>         0.5165 
      12 O3         0.7320    1.1053    3.7936 O.2       1 <0>        -0.5075 
      13 N1         1.0484   -1.0677    4.1001 N.am      1 <0>        -0.7277 
      14 C10        2.4747   -0.8529    4.3840 C.3       1 <0>         0.0923 
      15 C11        2.6241   -0.1442    5.7294 C.3       1 <0>         0.1538 
      16 N2         4.0503    0.0706    6.0134 N.pl3     1 <0>        -0.9868 
      17 C12        4.7391    1.3371    5.7266 C.3       1 <0>         0.0701 
      18 C13        6.2263    0.9713    5.8872 C.3       1 <0>        -0.1323 
      19 C14        6.3168    0.0043    7.0823 C.3       1 <0>        -0.5903 
      20 S1         4.9915   -1.1794    6.7383 S.o2      1 <0>         2.5602 
      21 O4         4.3801   -1.6117    7.9566 O.2       1 <0>        -0.9507 
      22 O5         5.3944   -2.1023    5.7228 O.2       1 <0>        -0.9534 
      23 H1         1.0141    0.4063   -3.4413 H         1 <0>         0.1028 
      24 H2         1.3528   -1.2503   -3.9881 H         1 <0>         0.0577 
      25 H3        -0.3010   -0.7852   -3.5338 H         1 <0>         0.0578 
      26 H4         0.5728    1.4946   -1.9584 H         1 <0>         0.1309 
      27 H5        -0.6443    2.8065   -0.2513 H         1 <0>         0.1300 
      28 H6        -1.5799    1.6563    1.7501 H         1 <0>         0.1298 
      29 H7        -0.1078   -2.0853    0.3415 H         1 <0>         0.1413 
      30 H8        -1.6382   -0.8662    4.3103 H         1 <0>         0.0972 
      31 H9        -1.7117    0.7080    3.4890 H         1 <0>         0.0968 
      32 H10        0.6650   -2.0019    4.1199 H         1 <0>         0.4034 
      33 H11        2.9126   -0.2383    3.6004 H         1 <0>         0.0764 
      34 H12        2.9861   -1.8126    4.4216 H         1 <0>         0.0833 
      35 H13        2.1871   -0.7585    6.5141 H         1 <0>         0.0878 
      36 H14        2.1137    0.8159    5.6930 H         1 <0>         0.0899 
      37 H15        4.5119    1.6209    4.7011 H         1 <0>         0.0810 
      38 H16        4.4481    2.1415    6.3989 H         1 <0>         0.0967 
      39 H17        6.7904    1.8704    6.1261 H         1 <0>         0.1151 
      40 H18        6.6347    0.5325    4.9791 H         1 <0>         0.0972 
      41 H19        7.2657   -0.5279    7.0758 H         1 <0>         0.1443 
      42 H20        6.1669    0.4806    8.0490 H         1 <0>         0.1447 
@<TRIPOS>BOND
       1        1        2 1        
       2        1       23 1        
       3        1       24 1        
       4        1       25 1        
       5        2        3 1        
       6        3        8 ar       
       7        3        4 ar       
       8        4        5 ar       
       9        4       26 1        
      10        5        6 ar       
      11        5       27 1        
      12        6        7 ar       
      13        6       28 1        
      14        7        8 ar       
      15        7        9 1        
      16        8       29 1        
      17        9       10 1        
      18       10       11 1        
      19       10       30 1        
      20       10       31 1        
      21       11       12 2        
      22       11       13 am       
      23       13       14 1        
      24       13       32 1        
      25       14       15 1        
      26       14       33 1        
      27       14       34 1        
      28       15       16 1        
      29       15       35 1        
      30       15       36 1        
      31       16       20 1        
      32       16       17 1        
      33       17       18 1        
      34       17       37 1        
      35       17       38 1        
      36       18       19 1        
      37       18       39 1        
      38       18       40 1        
      39       19       20 1        
      40       19       41 1        
      41       19       42 1        
      42       20       21 2        
      43       20       22 2        

