#        1GCZ_R01_S0001_C0000_L00014_S0001_C0025_G0010_E0001.mol2
#        Tue Jun  6 09:59:43 2017
#        Descriptor:     31    34     2     8     6    15
#        Energy - RMSD - RMSD MassCentre:     -46.6893    999.9999    999.9999
#        Receptor:       1  Surface Point:     1  Conformer:     0
#        Ligand:        14  Surface Point:     1  Conformer:    25
#        BUDE Formal Charge: 0
#        ATOM Count: 42
#        Heavy ATOM Count: 22
@<TRIPOS>MOLECULE
ZINC61597528_1GCZ_R01_S0001_C0000_L00014_S0001_C0025_G0010_E0001
 42 43 0 0 0
SMALL
USER_CHARGES
@<TRIPOS>ATOM
       1 C1        -2.8337   -1.1538    2.4250 C.3       1 <0>         0.0268 
       2 O1        -1.7134   -0.2674    2.4889 O.3       1 <0>        -0.3133 
       3 C2        -1.0295   -0.1805    3.6727 C.ar      1 <0>         0.1677 
       4 C3         0.3668   -0.1052    3.6065 C.ar      1 <0>        -0.2433 
       5 C4         1.1501   -0.0060    4.7597 C.ar      1 <0>        -0.0391 
       6 C5         0.5306    0.0112    6.0150 C.ar      1 <0>        -0.2473 
       7 C6        -0.8639   -0.0818    6.0962 C.ar      1 <0>         0.1672 
       8 C7        -1.6388   -0.1613    4.9330 C.ar      1 <0>        -0.1836 
       9 O2        -1.4746   -0.0957    7.3225 O.3       1 <0>        -0.2863 
      10 C8        -2.5751   -0.9885    7.5135 C.3       1 <0>         0.0425 
      11 C9        -2.1108   -2.4101    7.3053 C.2       1 <0>         0.5165 
      12 O3        -2.4866   -3.0426    6.3198 O.2       1 <0>        -0.5075 
      13 N1        -1.2948   -2.9788    8.1884 N.am      1 <0>        -0.7277 
      14 C10       -0.8457   -2.2229    9.3665 C.3       1 <0>         0.0923 
      15 C11        0.0761   -3.1000   10.2123 C.3       1 <0>         0.1538 
      16 N2         1.3237   -3.3507    9.4764 N.pl3     1 <0>        -0.9868 
      17 C12        2.5466   -2.5627    9.6874 C.3       1 <0>         0.0701 
      18 C13        3.4377   -2.9744    8.5008 C.3       1 <0>        -0.1323 
      19 C14        3.2162   -4.4830    8.2845 C.3       1 <0>        -0.5903 
      20 S1         1.4127   -4.6304    8.3239 S.o2      1 <0>         2.5602 
      21 O4         1.0263   -5.8663    8.9308 O.2       1 <0>        -0.9507 
      22 O5         0.8456   -4.1815    7.0902 O.2       1 <0>        -0.9534 
      23 H1        -3.5826   -0.8436    3.1507 H         1 <0>         0.1028 
      24 H2        -3.2622   -1.1242    1.4254 H         1 <0>         0.0577 
      25 H3        -2.5071   -2.1668    2.6504 H         1 <0>         0.0578 
      26 H4         0.8461   -0.1260    2.6389 H         1 <0>         0.1309 
      27 H5         2.2257    0.0547    4.6836 H         1 <0>         0.1300 
      28 H6         1.1208    0.0957    6.9155 H         1 <0>         0.1298 
      29 H7        -2.7087   -0.2065    5.0731 H         1 <0>         0.1413 
      30 H8        -3.3605   -0.7557    6.7975 H         1 <0>         0.0972 
      31 H9        -2.9610   -0.8781    8.5248 H         1 <0>         0.0968 
      32 H10       -0.9837   -3.9297    8.0502 H         1 <0>         0.4034 
      33 H11       -1.7089   -1.9276    9.9594 H         1 <0>         0.0764 
      34 H12       -0.3054   -1.3352    9.0442 H         1 <0>         0.0833 
      35 H13       -0.4164   -4.0472   10.4231 H         1 <0>         0.0878 
      36 H14        0.3032   -2.5926   11.1474 H         1 <0>         0.0899 
      37 H15        2.2830   -1.5085    9.6346 H         1 <0>         0.0810 
      38 H16        3.0268   -2.7697   10.6415 H         1 <0>         0.0967 
      39 H17        4.4804   -2.8123    8.7655 H         1 <0>         0.1151 
      40 H18        3.2100   -2.3990    7.6059 H         1 <0>         0.0972 
      41 H19        3.5661   -4.7861    7.3000 H         1 <0>         0.1443 
      42 H20        3.6710   -5.1108    9.0478 H         1 <0>         0.1447 
@<TRIPOS>BOND
       1        1        2 1        
       2        1       23 1        
       3        1       24 1        
       4        1       25 1        
       5        2        3 1        
       6        3        8 ar       
       7        3        4 ar       
       8        4        5 ar       
       9        4       26 1        
      10        5        6 ar       
      11        5       27 1        
      12        6        7 ar       
      13        6       28 1        
      14        7        8 ar       
      15        7        9 1        
      16        8       29 1        
      17        9       10 1        
      18       10       11 1        
      19       10       30 1        
      20       10       31 1        
      21       11       12 2        
      22       11       13 am       
      23       13       14 1        
      24       13       32 1        
      25       14       15 1        
      26       14       33 1        
      27       14       34 1        
      28       15       16 1        
      29       15       35 1        
      30       15       36 1        
      31       16       20 1        
      32       16       17 1        
      33       17       18 1        
      34       17       37 1        
      35       17       38 1        
      36       18       19 1        
      37       18       39 1        
      38       18       40 1        
      39       19       20 1        
      40       19       41 1        
      41       19       42 1        
      42       20       21 2        
      43       20       22 2        

