#        1GCZ_R01_S0001_C0000_L00014_S0001_C0025_G0010_E0001.mol2
#        Tue Jun  6 14:15:32 2017
#        Descriptor:     20     1    30    11     9    15
#        Energy - RMSD - RMSD MassCentre:     -44.6687    999.9999    999.9999
#        Receptor:       1  Surface Point:     1  Conformer:     0
#        Ligand:        14  Surface Point:     1  Conformer:    25
#        BUDE Formal Charge: 0
#        ATOM Count: 42
#        Heavy ATOM Count: 22
@<TRIPOS>MOLECULE
ZINC61597528_1GCZ_R01_S0001_C0000_L00014_S0001_C0025_G0010_E0001
 42 43 0 0 0
SMALL
USER_CHARGES
@<TRIPOS>ATOM
       1 C1        -2.0173   -1.1219    6.9731 C.3       1 <0>         0.0268 
       2 O1        -1.0554   -2.1113    6.5980 O.3       1 <0>        -0.3133 
       3 C2         0.2213   -1.6956    6.3260 C.ar      1 <0>         0.1677 
       4 C3         1.2723   -2.4946    6.7916 C.ar      1 <0>        -0.2433 
       5 C4         2.6081   -2.1572    6.5567 C.ar      1 <0>        -0.0391 
       6 C5         2.9097   -0.9893    5.8462 C.ar      1 <0>        -0.2473 
       7 C6         1.8686   -0.1718    5.3907 C.ar      1 <0>         0.1672 
       8 C7         0.5343   -0.5305    5.6157 C.ar      1 <0>        -0.1836 
       9 O2         2.1574    0.9879    4.7208 O.3       1 <0>        -0.2863 
      10 C8         1.3697    2.1450    5.0128 C.3       1 <0>         0.0425 
      11 C9         1.5230    2.5021    6.4719 C.2       1 <0>         0.5165 
      12 O3         0.5800    2.3476    7.2461 O.2       1 <0>        -0.5075 
      13 N1         2.6787    2.9843    6.9202 N.am      1 <0>        -0.7277 
      14 C10        3.8058    3.1692    5.9948 C.3       1 <0>         0.0923 
      15 C11        5.0037    3.7316    6.7586 C.3       1 <0>         0.1538 
      16 N2         5.5027    2.7190    7.7002 N.pl3     1 <0>        -0.9868 
      17 C12        6.6309    1.8290    7.3908 C.3       1 <0>         0.0701 
      18 C13        6.5619    0.7738    8.5103 C.3       1 <0>        -0.1323 
      19 C14        6.1709    1.5215    9.7986 C.3       1 <0>        -0.5903 
      20 S1         4.7819    2.5480    9.2574 S.o2      1 <0>         2.5602 
      21 O4         4.7914    3.8023    9.9441 O.2       1 <0>        -0.9507 
      22 O5         3.5947    1.7604    9.1331 O.2       1 <0>        -0.9534 
      23 H1        -2.1308   -0.4025    6.1649 H         1 <0>         0.1028 
      24 H2        -2.9735   -1.6025    7.1687 H         1 <0>         0.0577 
      25 H3        -1.6781   -0.6093    7.8707 H         1 <0>         0.0578 
      26 H4         1.0407   -3.3918    7.3464 H         1 <0>         0.1309 
      27 H5         3.4021   -2.7913    6.9225 H         1 <0>         0.1300 
      28 H6         3.9365   -0.7184    5.6490 H         1 <0>         0.1298 
      29 H7        -0.2146    0.1364    5.2147 H         1 <0>         0.1413 
      30 H8         0.3236    1.9359    4.7993 H         1 <0>         0.0972 
      31 H9         1.7062    2.9779    4.3990 H         1 <0>         0.0968 
      32 H10        2.7823    3.2236    7.8959 H         1 <0>         0.4034 
      33 H11        3.5196    3.8639    5.2079 H         1 <0>         0.0764 
      34 H12        4.0747    2.2116    5.5539 H         1 <0>         0.0833 
      35 H13        4.6991    4.6193    7.3093 H         1 <0>         0.0878 
      36 H14        5.7925    3.9926    6.0562 H         1 <0>         0.0899 
      37 H15        6.4508    1.3810    6.4158 H         1 <0>         0.0810 
      38 H16        7.5893    2.3440    7.3823 H         1 <0>         0.0967 
      39 H17        7.5488    0.3374    8.6495 H         1 <0>         0.1151 
      40 H18        5.8577   -0.0210    8.2733 H         1 <0>         0.0972 
      41 H19        5.8123    0.8253   10.5538 H         1 <0>         0.1443 
      42 H20        6.9672    2.1371   10.2118 H         1 <0>         0.1447 
@<TRIPOS>BOND
       1        1        2 1        
       2        1       23 1        
       3        1       24 1        
       4        1       25 1        
       5        2        3 1        
       6        3        8 ar       
       7        3        4 ar       
       8        4        5 ar       
       9        4       26 1        
      10        5        6 ar       
      11        5       27 1        
      12        6        7 ar       
      13        6       28 1        
      14        7        8 ar       
      15        7        9 1        
      16        8       29 1        
      17        9       10 1        
      18       10       11 1        
      19       10       30 1        
      20       10       31 1        
      21       11       12 2        
      22       11       13 am       
      23       13       14 1        
      24       13       32 1        
      25       14       15 1        
      26       14       33 1        
      27       14       34 1        
      28       15       16 1        
      29       15       35 1        
      30       15       36 1        
      31       16       20 1        
      32       16       17 1        
      33       17       18 1        
      34       17       37 1        
      35       17       38 1        
      36       18       19 1        
      37       18       39 1        
      38       18       40 1        
      39       19       20 1        
      40       19       41 1        
      41       19       42 1        
      42       20       21 2        
      43       20       22 2        

