#        1GCZ_R01_S0001_C0000_L00014_S0001_C0026_G0010_E0001.mol2
#        Tue Jun  6 14:15:34 2017
#        Descriptor:     16    28    33     8     6    14
#        Energy - RMSD - RMSD MassCentre:     -52.8170    999.9999    999.9999
#        Receptor:       1  Surface Point:     1  Conformer:     0
#        Ligand:        14  Surface Point:     1  Conformer:    26
#        BUDE Formal Charge: 0
#        ATOM Count: 42
#        Heavy ATOM Count: 22
@<TRIPOS>MOLECULE
ZINC61597528_1GCZ_R01_S0001_C0000_L00014_S0001_C0026_G0010_E0001
 42 43 0 0 0
SMALL
USER_CHARGES
@<TRIPOS>ATOM
       1 C1         3.3624   -5.1976    6.2684 C.3       1 <0>         0.0268 
       2 O1         2.2484   -5.7743    5.5821 O.3       1 <0>        -0.3133 
       3 C2         1.0028   -5.6126    6.1291 C.ar      1 <0>         0.1677 
       4 C3         0.1353   -6.7106    6.0929 C.ar      1 <0>        -0.2433 
       5 C4        -1.1523   -6.6446    6.6324 C.ar      1 <0>        -0.0391 
       6 C5        -1.5945   -5.4522    7.2178 C.ar      1 <0>        -0.2473 
       7 C6        -0.7434   -4.3410    7.2443 C.ar      1 <0>         0.1672 
       8 C7         0.5509   -4.4255    6.7176 C.ar      1 <0>        -0.1836 
       9 O2        -1.1805   -3.1621    7.7886 O.3       1 <0>        -0.2863 
      10 C8        -2.5250   -2.7566    7.5188 C.3       1 <0>         0.0425 
      11 C9        -2.8007   -1.4413    8.2073 C.2       1 <0>         0.5165 
      12 O3        -3.5679   -1.3978    9.1677 O.2       1 <0>        -0.5075 
      13 N1        -2.2137   -0.3289    7.7750 N.am      1 <0>        -0.7277 
      14 C10       -1.2968   -0.3808    6.6270 C.3       1 <0>         0.0923 
      15 C11       -0.7639    1.0217    6.3382 C.3       1 <0>         0.1538 
      16 N2         0.1530    0.9699    5.1903 N.pl3     1 <0>        -0.9868 
      17 C12       -0.2682    1.2855    3.8178 C.3       1 <0>         0.0701 
      18 C13        0.9140    0.7883    2.9655 C.3       1 <0>        -0.1323 
      19 C14        2.1963    1.1295    3.7471 C.3       1 <0>        -0.5903 
      20 S1         1.8102    0.5509    5.4180 S.o2      1 <0>         2.5602 
      21 O4         2.4052    1.4108    6.3935 O.2       1 <0>        -0.9507 
      22 O5         1.9206   -0.8729    5.4939 O.2       1 <0>        -0.9534 
      23 H1         3.4415   -5.6347    7.2616 H         1 <0>         0.1028 
      24 H2         4.2745   -5.3972    5.7099 H         1 <0>         0.0577 
      25 H3         3.2172   -4.1228    6.3550 H         1 <0>         0.0578 
      26 H4         0.4728   -7.6286    5.6347 H         1 <0>         0.1309 
      27 H5        -1.8025   -7.5061    6.5963 H         1 <0>         0.1300 
      28 H6        -2.5835   -5.3869    7.6466 H         1 <0>         0.1298 
      29 H7         1.1578   -3.5355    6.7948 H         1 <0>         0.1413 
      30 H8        -3.2140   -3.5117    7.8915 H         1 <0>         0.0972 
      31 H9        -2.6605   -2.6389    6.4457 H         1 <0>         0.0968 
      32 H10       -2.3975    0.5514    8.2346 H         1 <0>         0.4034 
      33 H11       -1.8286   -0.7530    5.7539 H         1 <0>         0.0764 
      34 H12       -0.4652   -1.0441    6.8560 H         1 <0>         0.0833 
      35 H13       -0.2311    1.3947    7.2106 H         1 <0>         0.0878 
      36 H14       -1.5944    1.6858    6.1084 H         1 <0>         0.0899 
      37 H15       -1.1731    0.7208    3.6034 H         1 <0>         0.0810 
      38 H16       -0.4569    2.3460    3.6639 H         1 <0>         0.0967 
      39 H17        0.9278    1.3329    2.0236 H         1 <0>         0.1151 
      40 H18        0.8397   -0.2762    2.7536 H         1 <0>         0.0972 
      41 H19        3.0409    0.5567    3.3698 H         1 <0>         0.1443 
      42 H20        2.4419    2.1894    3.7532 H         1 <0>         0.1447 
@<TRIPOS>BOND
       1        1        2 1        
       2        1       23 1        
       3        1       24 1        
       4        1       25 1        
       5        2        3 1        
       6        3        8 ar       
       7        3        4 ar       
       8        4        5 ar       
       9        4       26 1        
      10        5        6 ar       
      11        5       27 1        
      12        6        7 ar       
      13        6       28 1        
      14        7        8 ar       
      15        7        9 1        
      16        8       29 1        
      17        9       10 1        
      18       10       11 1        
      19       10       30 1        
      20       10       31 1        
      21       11       12 2        
      22       11       13 am       
      23       13       14 1        
      24       13       32 1        
      25       14       15 1        
      26       14       33 1        
      27       14       34 1        
      28       15       16 1        
      29       15       35 1        
      30       15       36 1        
      31       16       20 1        
      32       16       17 1        
      33       17       18 1        
      34       17       37 1        
      35       17       38 1        
      36       18       19 1        
      37       18       39 1        
      38       18       40 1        
      39       19       20 1        
      40       19       41 1        
      41       19       42 1        
      42       20       21 2        
      43       20       22 2        

