#        1GCZ_R01_S0001_C0000_L00014_S0001_C0027_G0010_E0001.mol2
#        Tue Jun  6 09:59:44 2017
#        Descriptor:     12     3    36     8    10    12
#        Energy - RMSD - RMSD MassCentre:     -68.4932    999.9999    999.9999
#        Receptor:       1  Surface Point:     1  Conformer:     0
#        Ligand:        14  Surface Point:     1  Conformer:    27
#        BUDE Formal Charge: 0
#        ATOM Count: 42
#        Heavy ATOM Count: 22
@<TRIPOS>MOLECULE
ZINC61597528_1GCZ_R01_S0001_C0000_L00014_S0001_C0027_G0010_E0001
 42 43 0 0 0
SMALL
USER_CHARGES
@<TRIPOS>ATOM
       1 C1         0.5100    1.7349   -1.6675 C.3       1 <0>         0.0268 
       2 O1        -0.7877    1.3321   -1.2219 O.3       1 <0>        -0.3133 
       3 C2        -0.8647    0.4987   -0.1374 C.ar      1 <0>         0.1677 
       4 C3         0.0731   -0.5372   -0.0527 C.ar      1 <0>        -0.2433 
       5 C4         0.0795   -1.4333    1.0199 C.ar      1 <0>        -0.0391 
       6 C5        -0.8770   -1.3022    2.0336 C.ar      1 <0>        -0.2473 
       7 C6        -1.8319   -0.2818    1.9520 C.ar      1 <0>         0.1672 
       8 C7        -1.8160    0.6212    0.8823 C.ar      1 <0>        -0.1836 
       9 O2        -2.7894   -0.1665    2.9251 O.3       1 <0>        -0.2863 
      10 C8        -2.3934   -0.3737    4.2835 C.3       1 <0>         0.0425 
      11 C9        -1.3440    0.6440    4.6617 C.2       1 <0>         0.5165 
      12 O3        -0.1817    0.2890    4.8504 O.2       1 <0>        -0.5075 
      13 N1        -1.6769    1.9252    4.7913 N.am      1 <0>        -0.7277 
      14 C10       -0.6554    2.9159    5.1597 C.3       1 <0>         0.0923 
      15 C11       -0.2323    2.6944    6.6111 C.3       1 <0>         0.1538 
      16 N2         0.7893    3.6852    6.9794 N.pl3     1 <0>        -0.9868 
      17 C12        2.2008    3.5586    6.5891 C.3       1 <0>         0.0701 
      18 C13        2.7679    4.9636    6.8649 C.3       1 <0>        -0.1323 
      19 C14        2.1052    5.4602    8.1633 C.3       1 <0>        -0.5903 
      20 S1         0.3561    5.0864    7.8860 S.o2      1 <0>         2.5602 
      21 O4        -0.2252    6.0477    7.0011 O.2       1 <0>        -0.9507 
      22 O5        -0.2754    4.7038    9.1107 O.2       1 <0>        -0.9534 
      23 H1         1.0820    0.8560   -1.9575 H         1 <0>         0.1028 
      24 H2         0.4088    2.4007   -2.5219 H         1 <0>         0.0577 
      25 H3         1.0247    2.2537   -0.8616 H         1 <0>         0.0578 
      26 H4         0.8067   -0.6436   -0.8381 H         1 <0>         0.1309 
      27 H5         0.8153   -2.2223    1.0656 H         1 <0>         0.1300 
      28 H6        -0.8810   -1.9811    2.8735 H         1 <0>         0.1298 
      29 H7        -2.5684    1.3958    0.8988 H         1 <0>         0.1413 
      30 H8        -1.9827   -1.3752    4.3934 H         1 <0>         0.0972 
      31 H9        -3.2577   -0.2619    4.9349 H         1 <0>         0.0968 
      32 H10       -2.6311    2.2178    4.6367 H         1 <0>         0.4034 
      33 H11       -1.0652    3.9179    5.0509 H         1 <0>         0.0764 
      34 H12        0.2098    2.8046    4.5094 H         1 <0>         0.0833 
      35 H13        0.1785    1.6929    6.7209 H         1 <0>         0.0878 
      36 H14       -1.0965    2.8062    7.2625 H         1 <0>         0.0899 
      37 H15        2.6643    2.8137    7.2326 H         1 <0>         0.0810 
      38 H16        2.3302    3.2701    5.5480 H         1 <0>         0.0967 
      39 H17        2.4808    5.6290    6.0535 H         1 <0>         0.1151 
      40 H18        3.8531    4.9531    6.9422 H         1 <0>         0.0972 
      41 H19        2.4508    4.8816    9.0175 H         1 <0>         0.1443 
      42 H20        2.2470    6.5219    8.3543 H         1 <0>         0.1447 
@<TRIPOS>BOND
       1        1        2 1        
       2        1       23 1        
       3        1       24 1        
       4        1       25 1        
       5        2        3 1        
       6        3        8 ar       
       7        3        4 ar       
       8        4        5 ar       
       9        4       26 1        
      10        5        6 ar       
      11        5       27 1        
      12        6        7 ar       
      13        6       28 1        
      14        7        8 ar       
      15        7        9 1        
      16        8       29 1        
      17        9       10 1        
      18       10       11 1        
      19       10       30 1        
      20       10       31 1        
      21       11       12 2        
      22       11       13 am       
      23       13       14 1        
      24       13       32 1        
      25       14       15 1        
      26       14       33 1        
      27       14       34 1        
      28       15       16 1        
      29       15       35 1        
      30       15       36 1        
      31       16       20 1        
      32       16       17 1        
      33       17       18 1        
      34       17       37 1        
      35       17       38 1        
      36       18       19 1        
      37       18       39 1        
      38       18       40 1        
      39       19       20 1        
      40       19       41 1        
      41       19       42 1        
      42       20       21 2        
      43       20       22 2        

