#        1GCZ_R01_S0001_C0000_L00014_S0001_C0027_G0010_E0001.mol2
#        Tue Jun  6 14:15:35 2017
#        Descriptor:     26    18    10    11     7    12
#        Energy - RMSD - RMSD MassCentre:     -54.8826    999.9999    999.9999
#        Receptor:       1  Surface Point:     1  Conformer:     0
#        Ligand:        14  Surface Point:     1  Conformer:    27
#        BUDE Formal Charge: 0
#        ATOM Count: 42
#        Heavy ATOM Count: 22
@<TRIPOS>MOLECULE
ZINC61597528_1GCZ_R01_S0001_C0000_L00014_S0001_C0027_G0010_E0001
 42 43 0 0 0
SMALL
USER_CHARGES
@<TRIPOS>ATOM
       1 C1        -0.8838    0.7442    0.2152 C.3       1 <0>         0.0268 
       2 O1        -0.6891    1.6934    1.2667 O.3       1 <0>        -0.3133 
       3 C2        -0.6163    1.2233    2.5514 C.ar      1 <0>         0.1677 
       4 C3        -1.4998    0.1998    2.9142 C.ar      1 <0>        -0.2433 
       5 C4        -1.4958   -0.3496    4.1993 C.ar      1 <0>        -0.0391 
       6 C5        -0.5942    0.1358    5.1540 C.ar      1 <0>        -0.2473 
       7 C6         0.2824    1.1716    4.8097 C.ar      1 <0>         0.1672 
       8 C7         0.2816    1.7006    3.5135 C.ar      1 <0>        -0.1836 
       9 O2         1.1464    1.6718    5.7479 O.3       1 <0>        -0.2863 
      10 C8         1.7869    0.7469    6.6305 C.3       1 <0>         0.0425 
      11 C9         2.6205   -0.2210    5.8254 C.2       1 <0>         0.5165 
      12 O3         2.2795   -1.3991    5.7336 O.2       1 <0>        -0.5075 
      13 N1         3.7247    0.2007    5.2153 N.am      1 <0>        -0.7277 
      14 C10        4.5363   -0.7416    4.4316 C.3       1 <0>         0.0923 
      15 C11        5.2206   -1.7299    5.3748 C.3       1 <0>         0.1538 
      16 N2         6.0322   -2.6722    4.5911 N.pl3     1 <0>        -0.9868 
      17 C12        5.4544   -3.8171    3.8728 C.3       1 <0>         0.0701 
      18 C13        6.5952   -4.2546    2.9354 C.3       1 <0>        -0.1323 
      19 C14        7.9045   -4.1002    3.7315 C.3       1 <0>        -0.5903 
      20 S1         7.7370   -2.4509    4.4577 S.o2      1 <0>         2.5602 
      21 O4         7.9968   -1.4446    3.4754 O.2       1 <0>        -0.9507 
      22 O5         8.3310   -2.4126    5.7580 O.2       1 <0>        -0.9534 
      23 H1        -1.8260    0.2222    0.3686 H         1 <0>         0.1028 
      24 H2        -0.9072    1.2628   -0.7409 H         1 <0>         0.0577 
      25 H3        -0.0661    0.0266    0.2192 H         1 <0>         0.0578 
      26 H4        -2.2008   -0.1701    2.1806 H         1 <0>         0.1309 
      27 H5        -2.1842   -1.1413    4.4550 H         1 <0>         0.1300 
      28 H6        -0.5724   -0.2833    6.1492 H         1 <0>         0.1298 
      29 H7         1.0015    2.4807    3.3148 H         1 <0>         0.1413 
      30 H8         1.0329    0.1970    7.1900 H         1 <0>         0.0972 
      31 H9         2.4285    1.2893    7.3219 H         1 <0>         0.0968 
      32 H10        4.0057    1.1679    5.2901 H         1 <0>         0.4034 
      33 H11        5.2912   -0.1929    3.8724 H         1 <0>         0.0764 
      34 H12        3.8956   -1.2852    3.7404 H         1 <0>         0.0833 
      35 H13        4.4665   -2.2798    5.9341 H         1 <0>         0.0878 
      36 H14        5.8622   -1.1875    6.0662 H         1 <0>         0.0899 
      37 H15        5.2241   -4.5920    4.6010 H         1 <0>         0.0810 
      38 H16        4.5541   -3.5610    3.3180 H         1 <0>         0.0967 
      39 H17        6.6297   -3.5842    2.0794 H         1 <0>         0.1151 
      40 H18        6.4561   -5.2728    2.5778 H         1 <0>         0.0972 
      41 H19        7.9531   -4.8293    4.5377 H         1 <0>         0.1443 
      42 H20        8.8032   -4.1634    3.1214 H         1 <0>         0.1447 
@<TRIPOS>BOND
       1        1        2 1        
       2        1       23 1        
       3        1       24 1        
       4        1       25 1        
       5        2        3 1        
       6        3        8 ar       
       7        3        4 ar       
       8        4        5 ar       
       9        4       26 1        
      10        5        6 ar       
      11        5       27 1        
      12        6        7 ar       
      13        6       28 1        
      14        7        8 ar       
      15        7        9 1        
      16        8       29 1        
      17        9       10 1        
      18       10       11 1        
      19       10       30 1        
      20       10       31 1        
      21       11       12 2        
      22       11       13 am       
      23       13       14 1        
      24       13       32 1        
      25       14       15 1        
      26       14       33 1        
      27       14       34 1        
      28       15       16 1        
      29       15       35 1        
      30       15       36 1        
      31       16       20 1        
      32       16       17 1        
      33       17       18 1        
      34       17       37 1        
      35       17       38 1        
      36       18       19 1        
      37       18       39 1        
      38       18       40 1        
      39       19       20 1        
      40       19       41 1        
      41       19       42 1        
      42       20       21 2        
      43       20       22 2        

