#        1GCZ_R01_S0001_C0000_L00014_S0001_C0028_G0010_E0001.mol2
#        Tue Jun  6 09:59:45 2017
#        Descriptor:     18    33    33    10     8    11
#        Energy - RMSD - RMSD MassCentre:     -52.7115    999.9999    999.9999
#        Receptor:       1  Surface Point:     1  Conformer:     0
#        Ligand:        14  Surface Point:     1  Conformer:    28
#        BUDE Formal Charge: 0
#        ATOM Count: 42
#        Heavy ATOM Count: 22
@<TRIPOS>MOLECULE
ZINC61597528_1GCZ_R01_S0001_C0000_L00014_S0001_C0028_G0010_E0001
 42 43 0 0 0
SMALL
USER_CHARGES
@<TRIPOS>ATOM
       1 C1        -0.0735   -1.0585   -3.0318 C.3       1 <0>         0.0268 
       2 O1         0.2524   -1.3443   -1.6691 O.3       1 <0>        -0.3133 
       3 C2        -0.1528   -0.4530   -0.7108 C.ar      1 <0>         0.1677 
       4 C3        -0.0425    0.9099   -1.0105 C.ar      1 <0>        -0.2433 
       5 C4        -0.4374    1.8940   -0.1001 C.ar      1 <0>        -0.0391 
       6 C5        -0.9492    1.5148    1.1465 C.ar      1 <0>        -0.2473 
       7 C6        -1.0478    0.1553    1.4660 C.ar      1 <0>         0.1672 
       8 C7        -0.6668   -0.8212    0.5381 C.ar      1 <0>        -0.1836 
       9 O2        -1.5196   -0.2221    2.6955 O.3       1 <0>        -0.2863 
      10 C8        -1.0979    0.5305    3.8359 C.3       1 <0>         0.0425 
      11 C9         0.4043    0.4478    3.9649 C.2       1 <0>         0.5165 
      12 O3         1.0967    1.4404    3.7461 O.2       1 <0>        -0.5075 
      13 N1         0.9790   -0.6993    4.3152 N.am      1 <0>        -0.7277 
      14 C10        2.4415   -0.7798    4.4408 C.3       1 <0>         0.0923 
      15 C11        2.8923    0.0244    5.6592 C.3       1 <0>         0.1538 
      16 N2         4.3547   -0.0561    5.7848 N.pl3     1 <0>        -0.9868 
      17 C12        5.2720    0.3851    4.7243 C.3       1 <0>         0.0701 
      18 C13        6.6315    0.4560    5.4442 C.3       1 <0>        -0.1323 
      19 C14        6.6832   -0.7429    6.4094 C.3       1 <0>        -0.5903 
      20 S1         5.0722   -0.6630    7.2304 S.o2      1 <0>         2.5602 
      21 O4         5.0665    0.3709    8.2183 O.2       1 <0>        -0.9507 
      22 O5         4.5841   -1.9785    7.5067 O.2       1 <0>        -0.9534 
      23 H1         0.3856   -0.1163   -3.3237 H         1 <0>         0.1028 
      24 H2         0.3001   -1.8574   -3.6686 H         1 <0>         0.0577 
      25 H3        -1.1537   -0.9845   -3.1377 H         1 <0>         0.0578 
      26 H4         0.3593    1.2036   -1.9690 H         1 <0>         0.1309 
      27 H5        -0.3465    2.9396   -0.3550 H         1 <0>         0.1300 
      28 H6        -1.2666    2.2624    1.8584 H         1 <0>         0.1298 
      29 H7        -0.7933   -1.8487    0.8457 H         1 <0>         0.1413 
      30 H8        -1.5612    0.1230    4.7319 H         1 <0>         0.0972 
      31 H9        -1.3941    1.5705    3.7145 H         1 <0>         0.0968 
      32 H10        0.4114   -1.5151    4.4951 H         1 <0>         0.4034 
      33 H11        2.9060   -0.3717    3.5455 H         1 <0>         0.0764 
      34 H12        2.7390   -1.8192    4.5629 H         1 <0>         0.0833 
      35 H13        2.4289   -0.3833    6.5553 H         1 <0>         0.0878 
      36 H14        2.5960    1.0643    5.5380 H         1 <0>         0.0899 
      37 H15        5.2783   -0.3742    3.9450 H         1 <0>         0.0810 
      38 H16        4.9945    1.3450    4.2937 H         1 <0>         0.0967 
      39 H17        6.6777    1.3726    6.0283 H         1 <0>         0.1151 
      40 H18        7.4618    0.4463    4.7411 H         1 <0>         0.0972 
      41 H19        6.7436   -1.6788    5.8577 H         1 <0>         0.1443 
      42 H20        7.4900   -0.6903    7.1374 H         1 <0>         0.1447 
@<TRIPOS>BOND
       1        1        2 1        
       2        1       23 1        
       3        1       24 1        
       4        1       25 1        
       5        2        3 1        
       6        3        8 ar       
       7        3        4 ar       
       8        4        5 ar       
       9        4       26 1        
      10        5        6 ar       
      11        5       27 1        
      12        6        7 ar       
      13        6       28 1        
      14        7        8 ar       
      15        7        9 1        
      16        8       29 1        
      17        9       10 1        
      18       10       11 1        
      19       10       30 1        
      20       10       31 1        
      21       11       12 2        
      22       11       13 am       
      23       13       14 1        
      24       13       32 1        
      25       14       15 1        
      26       14       33 1        
      27       14       34 1        
      28       15       16 1        
      29       15       35 1        
      30       15       36 1        
      31       16       20 1        
      32       16       17 1        
      33       17       18 1        
      34       17       37 1        
      35       17       38 1        
      36       18       19 1        
      37       18       39 1        
      38       18       40 1        
      39       19       20 1        
      40       19       41 1        
      41       19       42 1        
      42       20       21 2        
      43       20       22 2        

