#        1GCZ_R01_S0001_C0000_L00014_S0001_C0028_G0010_E0001.mol2
#        Tue Jun  6 14:15:37 2017
#        Descriptor:     36    25    34    15     9    13
#        Energy - RMSD - RMSD MassCentre:     -50.0824    999.9999    999.9999
#        Receptor:       1  Surface Point:     1  Conformer:     0
#        Ligand:        14  Surface Point:     1  Conformer:    28
#        BUDE Formal Charge: 0
#        ATOM Count: 42
#        Heavy ATOM Count: 22
@<TRIPOS>MOLECULE
ZINC61597528_1GCZ_R01_S0001_C0000_L00014_S0001_C0028_G0010_E0001
 42 43 0 0 0
SMALL
USER_CHARGES
@<TRIPOS>ATOM
       1 C1        12.2231    1.1777    1.1935 C.3       1 <0>         0.0268 
       2 O1        11.1229    1.6682    1.9640 O.3       1 <0>        -0.3133 
       3 C2        10.9228    1.1352    3.2101 C.ar      1 <0>         0.1677 
       4 C3        11.1030   -0.2452    3.3572 C.ar      1 <0>        -0.2433 
       5 C4        10.9295   -0.8789    4.5907 C.ar      1 <0>        -0.0391 
       6 C5        10.5590   -0.1221    5.7087 C.ar      1 <0>        -0.2473 
       7 C6        10.3577    1.2565    5.5714 C.ar      1 <0>         0.1672 
       8 C7        10.5533    1.8825    4.3347 C.ar      1 <0>        -0.1836 
       9 O2         9.9658    1.9980    6.6546 O.3       1 <0>        -0.2863 
      10 C8         8.9900    1.4351    7.5353 C.3       1 <0>         0.0425 
      11 C9         7.7134    1.1767    6.7713 C.2       1 <0>         0.5165 
      12 O3         7.3587    0.0226    6.5373 O.2       1 <0>        -0.5075 
      13 N1         6.9721    2.1979    6.3511 N.am      1 <0>        -0.7277 
      14 C10        5.7293    1.9463    5.6073 C.3       1 <0>         0.0923 
      15 C11        4.6865    1.3448    6.5482 C.3       1 <0>         0.1538 
      16 N2         3.4438    1.0931    5.8045 N.pl3     1 <0>        -0.9868 
      17 C12        3.3837    0.2203    4.6232 C.3       1 <0>         0.0701 
      18 C13        1.8734   -0.0187    4.4407 C.3       1 <0>        -0.1323 
      19 C14        1.1729    1.3137    4.7660 C.3       1 <0>        -0.5903 
      20 S1         1.9619    1.8101    6.3174 S.o2      1 <0>         2.5602 
      21 O4         1.4356    1.0518    7.4096 O.2       1 <0>        -0.9507 
      22 O5         2.0989    3.2323    6.3779 O.2       1 <0>        -0.9534 
      23 H1        12.0948    0.1118    1.0171 H         1 <0>         0.1028 
      24 H2        12.2600    1.7018    0.2408 H         1 <0>         0.0577 
      25 H3        13.1499    1.3469    1.7374 H         1 <0>         0.0578 
      26 H4        11.3815   -0.8310    2.4937 H         1 <0>         0.1309 
      27 H5        11.0779   -1.9448    4.6809 H         1 <0>         0.1300 
      28 H6        10.4287   -0.5949    6.6710 H         1 <0>         0.1298 
      29 H7        10.4024    2.9517    4.3105 H         1 <0>         0.1413 
      30 H8         8.7908    2.1297    8.3487 H         1 <0>         0.0972 
      31 H9         9.3648    0.4979    7.9415 H         1 <0>         0.0968 
      32 H10        7.2624    3.1461    6.5427 H         1 <0>         0.4034 
      33 H11        5.9270    1.2510    4.7941 H         1 <0>         0.0764 
      34 H12        5.3530    2.8829    5.2011 H         1 <0>         0.0833 
      35 H13        4.4874    2.0396    7.3616 H         1 <0>         0.0878 
      36 H14        5.0613    0.4076    6.9546 H         1 <0>         0.0899 
      37 H15        3.8010    0.7648    3.7788 H         1 <0>         0.0810 
      38 H16        3.9254   -0.7139    4.7564 H         1 <0>         0.0967 
      39 H17        1.5423   -0.7675    5.1570 H         1 <0>         0.1151 
      40 H18        1.6378   -0.3658    3.4367 H         1 <0>         0.0972 
      41 H19        1.3985    2.0620    4.0089 H         1 <0>         0.1443 
      42 H20        0.0956    1.2280    4.8915 H         1 <0>         0.1447 
@<TRIPOS>BOND
       1        1        2 1        
       2        1       23 1        
       3        1       24 1        
       4        1       25 1        
       5        2        3 1        
       6        3        8 ar       
       7        3        4 ar       
       8        4        5 ar       
       9        4       26 1        
      10        5        6 ar       
      11        5       27 1        
      12        6        7 ar       
      13        6       28 1        
      14        7        8 ar       
      15        7        9 1        
      16        8       29 1        
      17        9       10 1        
      18       10       11 1        
      19       10       30 1        
      20       10       31 1        
      21       11       12 2        
      22       11       13 am       
      23       13       14 1        
      24       13       32 1        
      25       14       15 1        
      26       14       33 1        
      27       14       34 1        
      28       15       16 1        
      29       15       35 1        
      30       15       36 1        
      31       16       20 1        
      32       16       17 1        
      33       17       18 1        
      34       17       37 1        
      35       17       38 1        
      36       18       19 1        
      37       18       39 1        
      38       18       40 1        
      39       19       20 1        
      40       19       41 1        
      41       19       42 1        
      42       20       21 2        
      43       20       22 2        

