#        1GCZ_R01_S0001_C0000_L00014_S0001_C0029_G0010_E0001.mol2
#        Tue Jun  6 09:59:46 2017
#        Descriptor:     23     7    35     9     8    11
#        Energy - RMSD - RMSD MassCentre:     -71.0507    999.9999    999.9999
#        Receptor:       1  Surface Point:     1  Conformer:     0
#        Ligand:        14  Surface Point:     1  Conformer:    29
#        BUDE Formal Charge: 0
#        ATOM Count: 42
#        Heavy ATOM Count: 22
@<TRIPOS>MOLECULE
ZINC61597528_1GCZ_R01_S0001_C0000_L00014_S0001_C0029_G0010_E0001
 42 43 0 0 0
SMALL
USER_CHARGES
@<TRIPOS>ATOM
       1 C1         0.4294   -1.1916   -3.6012 C.3       1 <0>         0.0268 
       2 O1         0.7151   -1.3319   -2.2071 O.3       1 <0>        -0.3133 
       3 C2         0.2110   -0.3897   -1.3498 C.ar      1 <0>         0.1677 
       4 C3         0.2432    0.9457   -1.7686 C.ar      1 <0>        -0.2433 
       5 C4        -0.2548    1.9766   -0.9671 C.ar      1 <0>        -0.0391 
       6 C5        -0.7931    1.6746    0.2894 C.ar      1 <0>        -0.2473 
       7 C6        -0.8148    0.3454    0.7281 C.ar      1 <0>         0.1672 
       8 C7        -0.3303   -0.6806   -0.0920 C.ar      1 <0>        -0.1836 
       9 O2        -1.3126    0.0464    1.9689 O.3       1 <0>        -0.2863 
      10 C8        -0.6257   -0.9363    2.7483 C.3       1 <0>         0.0425 
      11 C9         0.7876   -0.4730    3.0087 C.2       1 <0>         0.5165 
      12 O3         1.7327   -1.0450    2.4682 O.2       1 <0>        -0.5075 
      13 N1         1.0107    0.5544    3.8234 N.am      1 <0>        -0.7277 
      14 C10        2.3867    1.0055    4.0769 C.3       1 <0>         0.0923 
      15 C11        3.1206   -0.0445    4.9097 C.3       1 <0>         0.1538 
      16 N2         2.5308   -0.1015    6.2550 N.pl3     1 <0>        -0.9868 
      17 C12        2.8343    0.8849    7.3016 C.3       1 <0>         0.0701 
      18 C13        1.7341    0.6336    8.3495 C.3       1 <0>        -0.1323 
      19 C14        1.5213   -0.8905    8.4095 C.3       1 <0>        -0.5903 
      20 S1         1.4090   -1.3462    6.6615 S.o2      1 <0>         2.5602 
      21 O4         0.1244   -0.9996    6.1372 O.2       1 <0>        -0.9507 
      22 O5         1.9975   -2.6304    6.4391 O.2       1 <0>        -0.9534 
      23 H1         0.8370   -0.2492   -3.9611 H         1 <0>         0.1028 
      24 H2         0.8822   -2.0158   -4.1482 H         1 <0>         0.0577 
      25 H3        -0.6478   -1.2031   -3.7529 H         1 <0>         0.0578 
      26 H4         0.6652    1.1806   -2.7347 H         1 <0>         0.1309 
      27 H5        -0.2227    2.9992   -1.3132 H         1 <0>         0.1300 
      28 H6        -1.1895    2.4585    0.9178 H         1 <0>         0.1298 
      29 H7        -0.4013   -1.6830    0.3034 H         1 <0>         0.1413 
      30 H8        -0.6034   -1.8794    2.2062 H         1 <0>         0.0972 
      31 H9        -1.1420   -1.0740    3.6961 H         1 <0>         0.0968 
      32 H10        0.2353    1.0251    4.2678 H         1 <0>         0.4034 
      33 H11        2.3657    1.9482    4.6197 H         1 <0>         0.0764 
      34 H12        2.9043    1.1430    3.1298 H         1 <0>         0.0833 
      35 H13        4.1724    0.2232    4.9865 H         1 <0>         0.0878 
      36 H14        3.0272   -1.0174    4.4318 H         1 <0>         0.0899 
      37 H15        3.8198    0.6592    7.7036 H         1 <0>         0.0810 
      38 H16        2.8166    1.9103    6.9381 H         1 <0>         0.0967 
      39 H17        0.8098    1.0990    8.0139 H         1 <0>         0.1151 
      40 H18        2.0005    1.0441    9.3212 H         1 <0>         0.0972 
      41 H19        2.3905   -1.3838    8.8399 H         1 <0>         0.1443 
      42 H20        0.6231   -1.1910    8.9448 H         1 <0>         0.1447 
@<TRIPOS>BOND
       1        1        2 1        
       2        1       23 1        
       3        1       24 1        
       4        1       25 1        
       5        2        3 1        
       6        3        8 ar       
       7        3        4 ar       
       8        4        5 ar       
       9        4       26 1        
      10        5        6 ar       
      11        5       27 1        
      12        6        7 ar       
      13        6       28 1        
      14        7        8 ar       
      15        7        9 1        
      16        8       29 1        
      17        9       10 1        
      18       10       11 1        
      19       10       30 1        
      20       10       31 1        
      21       11       12 2        
      22       11       13 am       
      23       13       14 1        
      24       13       32 1        
      25       14       15 1        
      26       14       33 1        
      27       14       34 1        
      28       15       16 1        
      29       15       35 1        
      30       15       36 1        
      31       16       20 1        
      32       16       17 1        
      33       17       18 1        
      34       17       37 1        
      35       17       38 1        
      36       18       19 1        
      37       18       39 1        
      38       18       40 1        
      39       19       20 1        
      40       19       41 1        
      41       19       42 1        
      42       20       21 2        
      43       20       22 2        

