#        1GCZ_R01_S0001_C0000_L00014_S0001_C0030_G0010_E0001.mol2
#        Tue Jun  6 09:59:46 2017
#        Descriptor:     33    15    31     8     9    13
#        Energy - RMSD - RMSD MassCentre:     -56.6422    999.9999    999.9999
#        Receptor:       1  Surface Point:     1  Conformer:     0
#        Ligand:        14  Surface Point:     1  Conformer:    30
#        BUDE Formal Charge: 0
#        ATOM Count: 42
#        Heavy ATOM Count: 22
@<TRIPOS>MOLECULE
ZINC61597528_1GCZ_R01_S0001_C0000_L00014_S0001_C0030_G0010_E0001
 42 43 0 0 0
SMALL
USER_CHARGES
@<TRIPOS>ATOM
       1 C1        -0.4295   -2.4966   -0.4706 C.3       1 <0>         0.0268 
       2 O1        -0.1195   -1.1007   -0.4849 O.3       1 <0>        -0.3133 
       3 C2        -0.4957   -0.3478    0.5961 C.ar      1 <0>         0.1677 
       4 C3        -1.0129    0.9284    0.3441 C.ar      1 <0>        -0.2433 
       5 C4        -1.4308    1.7668    1.3812 C.ar      1 <0>        -0.0391 
       6 C5        -1.3252    1.3293    2.7069 C.ar      1 <0>        -0.2473 
       7 C6        -0.7927    0.0625    2.9738 C.ar      1 <0>         0.1672 
       8 C7        -0.3953   -0.7757    1.9252 C.ar      1 <0>        -0.1836 
       9 O2        -0.6586   -0.3599    4.2701 O.3       1 <0>        -0.2863 
      10 C8         0.5277   -1.0761    4.6230 C.3       1 <0>         0.0425 
      11 C9         1.7337   -0.1995    4.3835 C.2       1 <0>         0.5165 
      12 O3         2.5135   -0.4613    3.4692 O.2       1 <0>        -0.5075 
      13 N1         1.9529    0.8564    5.1620 N.am      1 <0>        -0.7277 
      14 C10        1.0209    1.1692    6.2549 C.3       1 <0>         0.0923 
      15 C11        1.4996    2.4211    6.9886 C.3       1 <0>         0.1538 
      16 N2         0.5676    2.7340    8.0815 N.pl3     1 <0>        -0.9868 
      17 C12       -0.3233    3.9030    8.0603 C.3       1 <0>         0.0701 
      18 C13       -0.8409    3.9753    9.5089 C.3       1 <0>        -0.1323 
      19 C14       -1.0673    2.5236    9.9700 C.3       1 <0>        -0.5903 
      20 S1         0.4605    1.6998    9.4572 S.o2      1 <0>         2.5602 
      21 O4         0.1892    0.3580    9.0437 O.2       1 <0>        -0.9507 
      22 O5         1.5267    2.0153   10.3566 O.2       1 <0>        -0.9534 
      23 H1        -1.5078   -2.6273   -0.4088 H         1 <0>         0.1028 
      24 H2        -0.0591   -2.9590   -1.3831 H         1 <0>         0.0577 
      25 H3         0.0430   -2.9635    0.3910 H         1 <0>         0.0578 
      26 H4        -1.0877    1.2697   -0.6778 H         1 <0>         0.1309 
      27 H5        -1.8303    2.7460    1.1623 H         1 <0>         0.1300 
      28 H6        -1.6511    1.9616    3.5196 H         1 <0>         0.1298 
      29 H7        -0.0163   -1.7471    2.2066 H         1 <0>         0.1413 
      30 H8         0.6055   -1.9734    4.0127 H         1 <0>         0.0972 
      31 H9         0.4852   -1.3541    5.6740 H         1 <0>         0.0968 
      32 H10        2.7592    1.4433    5.0028 H         1 <0>         0.4034 
      33 H11        0.9836    0.3338    6.9509 H         1 <0>         0.0764 
      34 H12        0.0282    1.3465    5.8463 H         1 <0>         0.0833 
      35 H13        1.5366    3.2576    6.2937 H         1 <0>         0.0878 
      36 H14        2.4920    2.2450    7.3983 H         1 <0>         0.0899 
      37 H15        0.2731    4.7783    7.8112 H         1 <0>         0.0810 
      38 H16       -1.1385    3.8039    7.3466 H         1 <0>         0.0967 
      39 H17       -1.7967    4.4949    9.5199 H         1 <0>         0.1151 
      40 H18       -0.1474    4.5037   10.1597 H         1 <0>         0.0972 
      41 H19       -1.1409    2.4711   11.0542 H         1 <0>         0.1443 
      42 H20       -1.9336    2.0456    9.5173 H         1 <0>         0.1447 
@<TRIPOS>BOND
       1        1        2 1        
       2        1       23 1        
       3        1       24 1        
       4        1       25 1        
       5        2        3 1        
       6        3        8 ar       
       7        3        4 ar       
       8        4        5 ar       
       9        4       26 1        
      10        5        6 ar       
      11        5       27 1        
      12        6        7 ar       
      13        6       28 1        
      14        7        8 ar       
      15        7        9 1        
      16        8       29 1        
      17        9       10 1        
      18       10       11 1        
      19       10       30 1        
      20       10       31 1        
      21       11       12 2        
      22       11       13 am       
      23       13       14 1        
      24       13       32 1        
      25       14       15 1        
      26       14       33 1        
      27       14       34 1        
      28       15       16 1        
      29       15       35 1        
      30       15       36 1        
      31       16       20 1        
      32       16       17 1        
      33       17       18 1        
      34       17       37 1        
      35       17       38 1        
      36       18       19 1        
      37       18       39 1        
      38       18       40 1        
      39       19       20 1        
      40       19       41 1        
      41       19       42 1        
      42       20       21 2        
      43       20       22 2        

