#        1GCZ_R01_S0001_C0000_L00014_S0001_C0030_G0010_E0001.mol2
#        Tue Jun  6 14:15:40 2017
#        Descriptor:     19     7    11    12     9    14
#        Energy - RMSD - RMSD MassCentre:     -45.6486    999.9999    999.9999
#        Receptor:       1  Surface Point:     1  Conformer:     0
#        Ligand:        14  Surface Point:     1  Conformer:    30
#        BUDE Formal Charge: 0
#        ATOM Count: 42
#        Heavy ATOM Count: 22
@<TRIPOS>MOLECULE
ZINC61597528_1GCZ_R01_S0001_C0000_L00014_S0001_C0030_G0010_E0001
 42 43 0 0 0
SMALL
USER_CHARGES
@<TRIPOS>ATOM
       1 C1         0.2341   -1.0706    1.1144 C.3       1 <0>         0.0268 
       2 O1         0.3488    0.3149    1.4490 O.3       1 <0>        -0.3133 
       3 C2         0.7511    0.6383    2.7181 C.ar      1 <0>         0.1677 
       4 C3         0.1083    1.7130    3.3438 C.ar      1 <0>        -0.2433 
       5 C4         0.4442    2.1126    4.6403 C.ar      1 <0>        -0.0391 
       6 C5         1.4521    1.4311    5.3328 C.ar      1 <0>        -0.2473 
       7 C6         2.1154    0.3662    4.7118 C.ar      1 <0>         0.1672 
       8 C7         1.7569   -0.0368    3.4199 C.ar      1 <0>        -0.1836 
       9 O2         3.1232   -0.2857    5.3723 O.3       1 <0>        -0.2863 
      10 C8         4.2827   -0.6608    4.6243 C.3       1 <0>         0.0425 
      11 C9         4.9384    0.5768    4.0597 C.2       1 <0>         0.5165 
      12 O3         4.9083    0.7918    2.8491 O.2       1 <0>        -0.5075 
      13 N1         5.5490    1.4348    4.8720 N.am      1 <0>        -0.7277 
      14 C10        5.5850    1.1777    6.3189 C.3       1 <0>         0.0923 
      15 C11        6.3408    2.3073    7.0173 C.3       1 <0>         0.1538 
      16 N2         6.3768    2.0502    8.4642 N.pl3     1 <0>        -0.9868 
      17 C12        5.6249    2.8562    9.4368 C.3       1 <0>         0.0701 
      18 C13        6.2229    2.4225   10.7880 C.3       1 <0>        -0.1323 
      19 C14        6.4762    0.9065   10.6926 C.3       1 <0>        -0.5903 
      20 S1         7.3068    0.7412    9.0930 S.o2      1 <0>         2.5602 
      21 O4         6.9265   -0.4820    8.4575 O.2       1 <0>        -0.9507 
      22 O5         8.6732    1.1512    9.1926 O.2       1 <0>        -0.9534 
      23 H1        -0.5032   -1.5397    1.7624 H         1 <0>         0.1028 
      24 H2        -0.0795   -1.1677    0.0772 H         1 <0>         0.0577 
      25 H3         1.1981   -1.5566    1.2495 H         1 <0>         0.0578 
      26 H4        -0.6641    2.2441    2.8075 H         1 <0>         0.1309 
      27 H5        -0.0683    2.9423    5.1041 H         1 <0>         0.1300 
      28 H6         1.7181    1.7219    6.3384 H         1 <0>         0.1298 
      29 H7         2.2961   -0.8805    3.0149 H         1 <0>         0.1413 
      30 H8         3.9918   -1.3202    3.8093 H         1 <0>         0.0972 
      31 H9         4.9845   -1.1768    5.2763 H         1 <0>         0.0968 
      32 H10        5.9879    2.2628    4.4955 H         1 <0>         0.4034 
      33 H11        6.0908    0.2330    6.5076 H         1 <0>         0.0764 
      34 H12        4.5689    1.1293    6.7048 H         1 <0>         0.0833 
      35 H13        5.8354    3.2525    6.8300 H         1 <0>         0.0878 
      36 H14        7.3573    2.3564    6.6329 H         1 <0>         0.0899 
      37 H15        5.8282    3.9059    9.2351 H         1 <0>         0.0810 
      38 H16        4.5520    2.6798    9.3967 H         1 <0>         0.0967 
      39 H17        5.4930    2.6024   11.5745 H         1 <0>         0.1151 
      40 H18        7.1326    2.9715   11.0220 H         1 <0>         0.0972 
      41 H19        7.1612    0.5809   11.4727 H         1 <0>         0.1443 
      42 H20        5.5708    0.3040   10.7208 H         1 <0>         0.1447 
@<TRIPOS>BOND
       1        1        2 1        
       2        1       23 1        
       3        1       24 1        
       4        1       25 1        
       5        2        3 1        
       6        3        8 ar       
       7        3        4 ar       
       8        4        5 ar       
       9        4       26 1        
      10        5        6 ar       
      11        5       27 1        
      12        6        7 ar       
      13        6       28 1        
      14        7        8 ar       
      15        7        9 1        
      16        8       29 1        
      17        9       10 1        
      18       10       11 1        
      19       10       30 1        
      20       10       31 1        
      21       11       12 2        
      22       11       13 am       
      23       13       14 1        
      24       13       32 1        
      25       14       15 1        
      26       14       33 1        
      27       14       34 1        
      28       15       16 1        
      29       15       35 1        
      30       15       36 1        
      31       16       20 1        
      32       16       17 1        
      33       17       18 1        
      34       17       37 1        
      35       17       38 1        
      36       18       19 1        
      37       18       39 1        
      38       18       40 1        
      39       19       20 1        
      40       19       41 1        
      41       19       42 1        
      42       20       21 2        
      43       20       22 2        

