#        1GCZ_R01_S0001_C0000_L00014_S0001_C0031_G0010_E0001.mol2
#        Tue Jun  6 09:59:47 2017
#        Descriptor:      1    19    12     7     6    14
#        Energy - RMSD - RMSD MassCentre:     -50.7804    999.9999    999.9999
#        Receptor:       1  Surface Point:     1  Conformer:     0
#        Ligand:        14  Surface Point:     1  Conformer:    31
#        BUDE Formal Charge: 0
#        ATOM Count: 42
#        Heavy ATOM Count: 22
@<TRIPOS>MOLECULE
ZINC61597528_1GCZ_R01_S0001_C0000_L00014_S0001_C0031_G0010_E0001
 42 43 0 0 0
SMALL
USER_CHARGES
@<TRIPOS>ATOM
       1 C1        -0.3218   -0.2144   -0.0947 C.3       1 <0>         0.0268 
       2 O1        -0.9409   -0.6727    1.1101 O.3       1 <0>        -0.3133 
       3 C2        -0.6932    0.0223    2.2643 C.ar      1 <0>         0.1677 
       4 C3         0.6143    0.4753    2.4760 C.ar      1 <0>        -0.2433 
       5 C4         0.9622    1.1996    3.6196 C.ar      1 <0>        -0.0391 
       6 C5        -0.0140    1.4756    4.5845 C.ar      1 <0>        -0.2473 
       7 C6        -1.3212    1.0126    4.3939 C.ar      1 <0>         0.1672 
       8 C7        -1.6616    0.3046    3.2351 C.ar      1 <0>        -0.1836 
       9 O2        -2.2742    1.2532    5.3483 O.3       1 <0>        -0.2863 
      10 C8        -3.1966    0.2043    5.6545 C.3       1 <0>         0.0425 
      11 C9        -2.4395   -0.9963    6.1694 C.2       1 <0>         0.5165 
      12 O3        -2.3633   -2.0159    5.4859 O.2       1 <0>        -0.5075 
      13 N1        -1.8543   -0.9513    7.3630 N.am      1 <0>        -0.7277 
      14 C10       -1.1172   -2.1201    7.8643 C.3       1 <0>         0.0923 
      15 C11       -2.1029   -3.2409    8.1914 C.3       1 <0>         0.1538 
      16 N2        -1.3657   -4.4097    8.6927 N.pl3     1 <0>        -0.9868 
      17 C12       -0.4256   -5.1763    7.8624 C.3       1 <0>         0.0701 
      18 C13       -0.1715   -6.4434    8.6999 C.3       1 <0>        -0.1323 
      19 C14       -0.1068   -5.9946   10.1716 C.3       1 <0>        -0.5903 
      20 S1        -1.5596   -4.9263   10.3265 S.o2      1 <0>         2.5602 
      21 O4        -1.2892   -3.8430   11.2201 O.2       1 <0>        -0.9507 
      22 O5        -2.7511   -5.7110   10.4246 O.2       1 <0>        -0.9534 
      23 H1         0.7598   -0.2492    0.0181 H         1 <0>         0.1028 
      24 H2        -0.6216   -0.8545   -0.9219 H         1 <0>         0.0577 
      25 H3        -0.6334    0.8084   -0.2955 H         1 <0>         0.0578 
      26 H4         1.3696    0.2565    1.7357 H         1 <0>         0.1309 
      27 H5         1.9768    1.5422    3.7593 H         1 <0>         0.1300 
      28 H6         0.2363    2.0410    5.4699 H         1 <0>         0.1298 
      29 H7        -2.6939    0.0001    3.1463 H         1 <0>         0.1413 
      30 H8        -3.7447   -0.0714    4.7560 H         1 <0>         0.0972 
      31 H9        -3.8951    0.5456    6.4157 H         1 <0>         0.0968 
      32 H10       -1.9162   -0.1144    7.9252 H         1 <0>         0.4034 
      33 H11       -0.5694   -1.8459    8.7635 H         1 <0>         0.0764 
      34 H12       -0.4188   -2.4627    7.1036 H         1 <0>         0.0833 
      35 H13       -2.6508   -3.5166    7.2927 H         1 <0>         0.0878 
      36 H14       -2.8015   -2.8997    8.9526 H         1 <0>         0.0899 
      37 H15       -0.9215   -5.4172    6.9245 H         1 <0>         0.0810 
      38 H16        0.4976   -4.6381    7.6574 H         1 <0>         0.0967 
      39 H17        0.7928   -6.8650    8.4241 H         1 <0>         0.1151 
      40 H18       -0.9414   -7.1951    8.5389 H         1 <0>         0.0972 
      41 H19       -0.2305   -6.8448   10.8391 H         1 <0>         0.1443 
      42 H20        0.8002   -5.4516   10.4291 H         1 <0>         0.1447 
@<TRIPOS>BOND
       1        1        2 1        
       2        1       23 1        
       3        1       24 1        
       4        1       25 1        
       5        2        3 1        
       6        3        8 ar       
       7        3        4 ar       
       8        4        5 ar       
       9        4       26 1        
      10        5        6 ar       
      11        5       27 1        
      12        6        7 ar       
      13        6       28 1        
      14        7        8 ar       
      15        7        9 1        
      16        8       29 1        
      17        9       10 1        
      18       10       11 1        
      19       10       30 1        
      20       10       31 1        
      21       11       12 2        
      22       11       13 am       
      23       13       14 1        
      24       13       32 1        
      25       14       15 1        
      26       14       33 1        
      27       14       34 1        
      28       15       16 1        
      29       15       35 1        
      30       15       36 1        
      31       16       20 1        
      32       16       17 1        
      33       17       18 1        
      34       17       37 1        
      35       17       38 1        
      36       18       19 1        
      37       18       39 1        
      38       18       40 1        
      39       19       20 1        
      40       19       41 1        
      41       19       42 1        
      42       20       21 2        
      43       20       22 2        

