#        1GCZ_R01_S0001_C0000_L00014_S0001_C0031_G0010_E0001.mol2
#        Tue Jun  6 14:15:42 2017
#        Descriptor:     17    33    28     8     5    14
#        Energy - RMSD - RMSD MassCentre:     -46.7487    999.9999    999.9999
#        Receptor:       1  Surface Point:     1  Conformer:     0
#        Ligand:        14  Surface Point:     1  Conformer:    31
#        BUDE Formal Charge: 0
#        ATOM Count: 42
#        Heavy ATOM Count: 22
@<TRIPOS>MOLECULE
ZINC61597528_1GCZ_R01_S0001_C0000_L00014_S0001_C0031_G0010_E0001
 42 43 0 0 0
SMALL
USER_CHARGES
@<TRIPOS>ATOM
       1 C1        -1.2929    0.1075    0.5718 C.3       1 <0>         0.0268 
       2 O1        -1.4941   -0.5259    1.8380 O.3       1 <0>        -0.3133 
       3 C2        -0.6508   -0.1920    2.8646 C.ar      1 <0>         0.1677 
       4 C3         0.7057   -0.0321    2.5583 C.ar      1 <0>        -0.2433 
       5 C4         1.6412    0.3155    3.5368 C.ar      1 <0>        -0.0391 
       6 C5         1.2195    0.5023    4.8587 C.ar      1 <0>        -0.2473 
       7 C6        -0.1312    0.3275    5.1819 C.ar      1 <0>         0.1672 
       8 C7        -1.0617   -0.0020    4.1893 C.ar      1 <0>        -0.1836 
       9 O2        -0.5455    0.4792    6.4790 O.3       1 <0>        -0.2863 
      10 C8        -1.5140   -0.4428    6.9860 C.3       1 <0>         0.0425 
      11 C9        -0.9525   -1.8433    6.9289 C.2       1 <0>         0.5165 
      12 O3        -1.4105   -2.6583    6.1299 O.2       1 <0>        -0.5075 
      13 N1         0.0382   -2.1958    7.7434 N.am      1 <0>        -0.7277 
      14 C10        0.5848   -3.5593    7.6879 C.3       1 <0>         0.0923 
      15 C11       -0.4500   -4.5444    8.2295 C.3       1 <0>         0.1538 
      16 N2         0.0967   -5.9078    8.1740 N.pl3     1 <0>        -0.9868 
      17 C12        0.4125   -6.5900    6.9108 C.3       1 <0>         0.0701 
      18 C13        0.6356   -8.0498    7.3473 C.3       1 <0>        -0.1323 
      19 C14        1.3761   -7.9992    8.6966 C.3       1 <0>        -0.5903 
      20 S1         0.4228   -6.7750    9.6285 S.o2      1 <0>         2.5602 
      21 O4         1.2853   -6.0097   10.4743 O.2       1 <0>        -0.9507 
      22 O5        -0.7965   -7.3479   10.1080 O.2       1 <0>        -0.9534 
      23 H1        -0.2999   -0.1353    0.1992 H         1 <0>         0.1028 
      24 H2        -2.0421   -0.2467   -0.1332 H         1 <0>         0.0577 
      25 H3        -1.3840    1.1854    0.6876 H         1 <0>         0.0578 
      26 H4         1.0331   -0.1832    1.5403 H         1 <0>         0.1309 
      27 H5         2.6821    0.4373    3.2760 H         1 <0>         0.1300 
      28 H6         1.9282    0.7790    5.6252 H         1 <0>         0.1298 
      29 H7        -2.0889   -0.0971    4.5090 H         1 <0>         0.1413 
      30 H8        -2.4171   -0.3900    6.3816 H         1 <0>         0.0972 
      31 H9        -1.7515   -0.1897    8.0171 H         1 <0>         0.0968 
      32 H10        0.4151   -1.5273    8.4000 H         1 <0>         0.4034 
      33 H11        1.4877   -3.6136    8.2927 H         1 <0>         0.0764 
      34 H12        0.8221   -3.8138    6.6570 H         1 <0>         0.0833 
      35 H13       -1.3531   -4.4915    7.6250 H         1 <0>         0.0878 
      36 H14       -0.6877   -4.2914    9.2607 H         1 <0>         0.0899 
      37 H15       -0.4508   -6.5029    6.2544 H         1 <0>         0.0810 
      38 H16        1.2895   -6.1805    6.4137 H         1 <0>         0.0967 
      39 H17        1.2754   -8.5451    6.6199 H         1 <0>         0.1151 
      40 H18       -0.3017   -8.5975    7.4197 H         1 <0>         0.0972 
      41 H19        1.3059   -8.9556    9.2103 H         1 <0>         0.1443 
      42 H20        2.4185   -7.6976    8.6181 H         1 <0>         0.1447 
@<TRIPOS>BOND
       1        1        2 1        
       2        1       23 1        
       3        1       24 1        
       4        1       25 1        
       5        2        3 1        
       6        3        8 ar       
       7        3        4 ar       
       8        4        5 ar       
       9        4       26 1        
      10        5        6 ar       
      11        5       27 1        
      12        6        7 ar       
      13        6       28 1        
      14        7        8 ar       
      15        7        9 1        
      16        8       29 1        
      17        9       10 1        
      18       10       11 1        
      19       10       30 1        
      20       10       31 1        
      21       11       12 2        
      22       11       13 am       
      23       13       14 1        
      24       13       32 1        
      25       14       15 1        
      26       14       33 1        
      27       14       34 1        
      28       15       16 1        
      29       15       35 1        
      30       15       36 1        
      31       16       20 1        
      32       16       17 1        
      33       17       18 1        
      34       17       37 1        
      35       17       38 1        
      36       18       19 1        
      37       18       39 1        
      38       18       40 1        
      39       19       20 1        
      40       19       41 1        
      41       19       42 1        
      42       20       21 2        
      43       20       22 2        

