#        1GCZ_R01_S0001_C0000_L00014_S0001_C0032_G0010_E0001.mol2
#        Tue Jun  6 09:59:48 2017
#        Descriptor:     30    27     2    10     7    13
#        Energy - RMSD - RMSD MassCentre:     -50.0742    999.9999    999.9999
#        Receptor:       1  Surface Point:     1  Conformer:     0
#        Ligand:        14  Surface Point:     1  Conformer:    32
#        BUDE Formal Charge: 0
#        ATOM Count: 42
#        Heavy ATOM Count: 22
@<TRIPOS>MOLECULE
ZINC61597528_1GCZ_R01_S0001_C0000_L00014_S0001_C0032_G0010_E0001
 42 43 0 0 0
SMALL
USER_CHARGES
@<TRIPOS>ATOM
       1 C1         5.2965   -6.2543    4.1163 C.3       1 <0>         0.0268 
       2 O1         4.2179   -5.4663    4.6269 O.3       1 <0>        -0.3133 
       3 C2         4.5272   -4.3208    5.3118 C.ar      1 <0>         0.1677 
       4 C3         5.6148   -4.3697    6.1918 C.ar      1 <0>        -0.2433 
       5 C4         6.0114   -3.2502    6.9284 C.ar      1 <0>        -0.0391 
       6 C5         5.3037   -2.0497    6.7937 C.ar      1 <0>        -0.2473 
       7 C6         4.2030   -1.9923    5.9307 C.ar      1 <0>         0.1672 
       8 C7         3.8272   -3.1152    5.1839 C.ar      1 <0>        -0.1836 
       9 O2         3.4876   -0.8294    5.8168 O.3       1 <0>        -0.2863 
      10 C8         3.2294   -0.0814    7.0079 C.3       1 <0>         0.0425 
      11 C9         2.4335    1.1545    6.6624 C.2       1 <0>         0.5165 
      12 O3         2.9556    2.2652    6.7413 O.2       1 <0>        -0.5075 
      13 N1         1.1669    1.0417    6.2726 N.am      1 <0>        -0.7277 
      14 C10        0.3920    2.2448    5.9362 C.3       1 <0>         0.0923 
      15 C11       -1.0220    1.8397    5.5225 C.3       1 <0>         0.1538 
      16 N2        -0.9679    1.1063    4.2497 N.pl3     1 <0>        -0.9868 
      17 C12       -0.5371    1.7270    2.9888 C.3       1 <0>         0.0701 
      18 C13       -0.9506    0.6896    1.9284 C.3       1 <0>        -0.1323 
      19 C14       -0.6702   -0.6978    2.5349 C.3       1 <0>        -0.5903 
      20 S1        -1.3942   -0.5636    4.1883 S.o2      1 <0>         2.5602 
      21 O4        -0.6184   -1.3041    5.1342 O.2       1 <0>        -0.9507 
      22 O5        -2.8184   -0.6747    4.1228 O.2       1 <0>        -0.9534 
      23 H1         5.9218   -6.5897    4.9410 H         1 <0>         0.1028 
      24 H2         4.8960   -7.1178    3.5895 H         1 <0>         0.0577 
      25 H3         5.8906   -5.6538    3.4308 H         1 <0>         0.0578 
      26 H4         6.1567   -5.2974    6.3021 H         1 <0>         0.1309 
      27 H5         6.8562   -3.3107    7.5985 H         1 <0>         0.1300 
      28 H6         5.6021   -1.1731    7.3495 H         1 <0>         0.1298 
      29 H7         2.9831   -2.9891    4.5221 H         1 <0>         0.1413 
      30 H8         4.1725    0.2114    7.4647 H         1 <0>         0.0972 
      31 H9         2.6622   -0.6939    7.7057 H         1 <0>         0.0968 
      32 H10        0.7370    0.1301    6.2074 H         1 <0>         0.4034 
      33 H11        0.8738    2.7689    5.1135 H         1 <0>         0.0764 
      34 H12        0.3419    2.8990    6.8041 H         1 <0>         0.0833 
      35 H13       -1.6344    2.7309    5.4011 H         1 <0>         0.0878 
      36 H14       -1.4564    1.2021    6.2896 H         1 <0>         0.0899 
      37 H15       -1.0871    2.6575    2.8647 H         1 <0>         0.0810 
      38 H16        0.5314    1.9297    2.9576 H         1 <0>         0.0967 
      39 H17       -0.3263    0.8141    1.0461 H         1 <0>         0.1151 
      40 H18       -1.9933    0.8020    1.6385 H         1 <0>         0.0972 
      41 H19       -1.2025   -1.4723    1.9866 H         1 <0>         0.1443 
      42 H20        0.3867   -0.9485    2.5961 H         1 <0>         0.1447 
@<TRIPOS>BOND
       1        1        2 1        
       2        1       23 1        
       3        1       24 1        
       4        1       25 1        
       5        2        3 1        
       6        3        8 ar       
       7        3        4 ar       
       8        4        5 ar       
       9        4       26 1        
      10        5        6 ar       
      11        5       27 1        
      12        6        7 ar       
      13        6       28 1        
      14        7        8 ar       
      15        7        9 1        
      16        8       29 1        
      17        9       10 1        
      18       10       11 1        
      19       10       30 1        
      20       10       31 1        
      21       11       12 2        
      22       11       13 am       
      23       13       14 1        
      24       13       32 1        
      25       14       15 1        
      26       14       33 1        
      27       14       34 1        
      28       15       16 1        
      29       15       35 1        
      30       15       36 1        
      31       16       20 1        
      32       16       17 1        
      33       17       18 1        
      34       17       37 1        
      35       17       38 1        
      36       18       19 1        
      37       18       39 1        
      38       18       40 1        
      39       19       20 1        
      40       19       41 1        
      41       19       42 1        
      42       20       21 2        
      43       20       22 2        

