#        1GCZ_R01_S0001_C0000_L00014_S0001_C0032_G0010_E0001.mol2
#        Tue Jun  6 14:15:44 2017
#        Descriptor:      2    34    21     8     5    14
#        Energy - RMSD - RMSD MassCentre:     -51.9272    999.9999    999.9999
#        Receptor:       1  Surface Point:     1  Conformer:     0
#        Ligand:        14  Surface Point:     1  Conformer:    32
#        BUDE Formal Charge: 0
#        ATOM Count: 42
#        Heavy ATOM Count: 22
@<TRIPOS>MOLECULE
ZINC61597528_1GCZ_R01_S0001_C0000_L00014_S0001_C0032_G0010_E0001
 42 43 0 0 0
SMALL
USER_CHARGES
@<TRIPOS>ATOM
       1 C1        -0.1840   -0.4111    0.2975 C.3       1 <0>         0.0268 
       2 O1         0.4089   -1.1373    1.3773 O.3       1 <0>        -0.3133 
       3 C2         0.3963   -0.5632    2.6211 C.ar      1 <0>         0.1677 
       4 C3         0.6514    0.8110    2.6994 C.ar      1 <0>        -0.2433 
       5 C4         0.6522    1.4869    3.9227 C.ar      1 <0>        -0.0391 
       6 C5         0.4002    0.7774    5.1030 C.ar      1 <0>        -0.2473 
       7 C6         0.1616   -0.6006    5.0405 C.ar      1 <0>         0.1672 
       8 C7         0.1446   -1.2629    3.8073 C.ar      1 <0>        -0.1836 
       9 O2        -0.0558   -1.3064    6.1945 O.3       1 <0>        -0.2863 
      10 C8         0.7442   -0.9881    7.3362 C.3       1 <0>         0.0425 
      11 C9         0.3462   -1.8752    8.4916 C.2       1 <0>         0.5165 
      12 O3        -0.2403   -1.3973    9.4613 O.2       1 <0>        -0.5075 
      13 N1         0.6302   -3.1742    8.4606 N.am      1 <0>        -0.7277 
      14 C10        0.2427   -4.0378    9.5854 C.3       1 <0>         0.0923 
      15 C11        0.6829   -5.4728    9.2997 C.3       1 <0>         0.1538 
      16 N2        -0.0991   -6.0099    8.1769 N.pl3     1 <0>        -0.9868 
      17 C12       -1.5502   -6.2333    8.2497 C.3       1 <0>         0.0701 
      18 C13       -1.8381   -7.0778    6.9945 C.3       1 <0>        -0.1323 
      19 C14       -0.9430   -6.5203    5.8722 C.3       1 <0>        -0.5903 
      20 S1         0.6710   -6.3848    6.6801 S.o2      1 <0>         2.5602 
      21 O4         1.3790   -5.2424    6.1917 O.2       1 <0>        -0.9507 
      22 O5         1.2878   -7.6706    6.7872 O.2       1 <0>        -0.9534 
      23 H1         0.3384    0.5343    0.1670 H         1 <0>         0.1028 
      24 H2        -0.1092   -0.9965   -0.6165 H         1 <0>         0.0577 
      25 H3        -1.2311   -0.2197    0.5218 H         1 <0>         0.0578 
      26 H4         0.8533    1.3578    1.7902 H         1 <0>         0.1309 
      27 H5         0.8478    2.5485    3.9580 H         1 <0>         0.1300 
      28 H6         0.3891    1.2861    6.0556 H         1 <0>         0.1298 
      29 H7        -0.0695   -2.3210    3.8353 H         1 <0>         0.1413 
      30 H8         0.5893    0.0535    7.6095 H         1 <0>         0.0972 
      31 H9         1.7940   -1.1498    7.1006 H         1 <0>         0.0968 
      32 H10        1.1117   -3.5677    7.6648 H         1 <0>         0.4034 
      33 H11       -0.8376   -4.0086    9.7104 H         1 <0>         0.0764 
      34 H12        0.7235   -3.6861   10.4958 H         1 <0>         0.0833 
      35 H13        0.5168   -6.0864   10.1828 H         1 <0>         0.0878 
      36 H14        1.7401   -5.4843    9.0429 H         1 <0>         0.0899 
      37 H15       -1.7609   -6.7937    9.1582 H         1 <0>         0.0810 
      38 H16       -2.1235   -5.3085    8.2523 H         1 <0>         0.0967 
      39 H17       -2.8785   -6.9436    6.7061 H         1 <0>         0.1151 
      40 H18       -1.6568   -8.1362    7.1695 H         1 <0>         0.0972 
      41 H19       -0.8613   -7.2337    5.0549 H         1 <0>         0.1443 
      42 H20       -1.2644   -5.5542    5.4887 H         1 <0>         0.1447 
@<TRIPOS>BOND
       1        1        2 1        
       2        1       23 1        
       3        1       24 1        
       4        1       25 1        
       5        2        3 1        
       6        3        8 ar       
       7        3        4 ar       
       8        4        5 ar       
       9        4       26 1        
      10        5        6 ar       
      11        5       27 1        
      12        6        7 ar       
      13        6       28 1        
      14        7        8 ar       
      15        7        9 1        
      16        8       29 1        
      17        9       10 1        
      18       10       11 1        
      19       10       30 1        
      20       10       31 1        
      21       11       12 2        
      22       11       13 am       
      23       13       14 1        
      24       13       32 1        
      25       14       15 1        
      26       14       33 1        
      27       14       34 1        
      28       15       16 1        
      29       15       35 1        
      30       15       36 1        
      31       16       20 1        
      32       16       17 1        
      33       17       18 1        
      34       17       37 1        
      35       17       38 1        
      36       18       19 1        
      37       18       39 1        
      38       18       40 1        
      39       19       20 1        
      40       19       41 1        
      41       19       42 1        
      42       20       21 2        
      43       20       22 2        

