#        1GCZ_R01_S0001_C0000_L00014_S0001_C0033_G0010_E0001.mol2
#        Tue Jun  6 09:59:48 2017
#        Descriptor:     12    31    25     7     6    13
#        Energy - RMSD - RMSD MassCentre:     -51.8909    999.9999    999.9999
#        Receptor:       1  Surface Point:     1  Conformer:     0
#        Ligand:        14  Surface Point:     1  Conformer:    33
#        BUDE Formal Charge: 0
#        ATOM Count: 42
#        Heavy ATOM Count: 22
@<TRIPOS>MOLECULE
ZINC61597528_1GCZ_R01_S0001_C0000_L00014_S0001_C0033_G0010_E0001
 42 43 0 0 0
SMALL
USER_CHARGES
@<TRIPOS>ATOM
       1 C1         0.2493   -1.4759   -1.0764 C.3       1 <0>         0.0268 
       2 O1         0.7018   -1.4954    0.2800 O.3       1 <0>        -0.3133 
       3 C2         0.0463   -0.7056    1.1873 C.ar      1 <0>         0.1677 
       4 C3        -0.3338    0.5756    0.7707 C.ar      1 <0>        -0.2433 
       5 C4        -1.0135    1.4509    1.6223 C.ar      1 <0>        -0.0391 
       6 C5        -1.3178    1.0459    2.9275 C.ar      1 <0>        -0.2473 
       7 C6        -0.9273   -0.2261    3.3627 C.ar      1 <0>         0.1672 
       8 C7        -0.2639   -1.1008    2.4940 C.ar      1 <0>        -0.1836 
       9 O2        -1.1954   -0.6174    4.6480 O.3       1 <0>        -0.2863 
      10 C8        -1.0213    0.3441    5.6920 C.3       1 <0>         0.0425 
      11 C9        -1.3678   -0.2871    7.0192 C.2       1 <0>         0.5165 
      12 O3        -2.3808    0.0633    7.6221 O.2       1 <0>        -0.5075 
      13 N1        -0.5767   -1.2227    7.5369 N.am      1 <0>        -0.7277 
      14 C10       -0.9139   -1.8373    8.8290 C.3       1 <0>         0.0923 
      15 C11       -2.1502   -2.7203    8.6648 C.3       1 <0>         0.1538 
      16 N2        -1.8174   -3.8751    7.8184 N.pl3     1 <0>        -0.9868 
      17 C12       -2.3425   -4.0434    6.4558 C.3       1 <0>         0.0701 
      18 C13       -1.9873   -5.5040    6.1213 C.3       1 <0>        -0.1323 
      19 C14       -0.5940   -5.7683    6.7215 C.3       1 <0>        -0.5903 
      20 S1        -0.7479   -5.0985    8.3959 S.o2      1 <0>         2.5602 
      21 O4         0.4879   -4.5134    8.8147 O.2       1 <0>        -0.9507 
      22 O5        -1.4825   -5.9979    9.2305 O.2       1 <0>        -0.9534 
      23 H1         0.3423   -0.4677   -1.4746 H         1 <0>         0.1028 
      24 H2         0.8544   -2.1581   -1.6697 H         1 <0>         0.0577 
      25 H3        -0.7925   -1.7870   -1.1150 H         1 <0>         0.0578 
      26 H4        -0.0928    0.8918   -0.2334 H         1 <0>         0.1309 
      27 H5        -1.3001    2.4333    1.2774 H         1 <0>         0.1300 
      28 H6        -1.8497    1.7069    3.5957 H         1 <0>         0.1298 
      29 H7        -0.0150   -2.0733    2.8923 H         1 <0>         0.1413 
      30 H8        -1.6749    1.1956    5.5146 H         1 <0>         0.0972 
      31 H9         0.0140    0.6782    5.7092 H         1 <0>         0.0968 
      32 H10        0.2554   -1.5114    7.0426 H         1 <0>         0.4034 
      33 H11       -1.1204   -1.0576    9.5592 H         1 <0>         0.0764 
      34 H12       -0.0785   -2.4442    9.1717 H         1 <0>         0.0833 
      35 H13       -2.9471   -2.1461    8.1968 H         1 <0>         0.0878 
      36 H14       -2.4793   -3.0698    9.6411 H         1 <0>         0.0899 
      37 H15       -3.4203   -3.8978    6.4883 H         1 <0>         0.0810 
      38 H16       -1.9037   -3.3493    5.7419 H         1 <0>         0.0967 
      39 H17       -1.9257   -5.6170    5.0410 H         1 <0>         0.1151 
      40 H18       -2.7320   -6.1987    6.5043 H         1 <0>         0.0972 
      41 H19       -0.4022   -6.8368    6.7933 H         1 <0>         0.1443 
      42 H20        0.2183   -5.2823    6.1851 H         1 <0>         0.1447 
@<TRIPOS>BOND
       1        1        2 1        
       2        1       23 1        
       3        1       24 1        
       4        1       25 1        
       5        2        3 1        
       6        3        8 ar       
       7        3        4 ar       
       8        4        5 ar       
       9        4       26 1        
      10        5        6 ar       
      11        5       27 1        
      12        6        7 ar       
      13        6       28 1        
      14        7        8 ar       
      15        7        9 1        
      16        8       29 1        
      17        9       10 1        
      18       10       11 1        
      19       10       30 1        
      20       10       31 1        
      21       11       12 2        
      22       11       13 am       
      23       13       14 1        
      24       13       32 1        
      25       14       15 1        
      26       14       33 1        
      27       14       34 1        
      28       15       16 1        
      29       15       35 1        
      30       15       36 1        
      31       16       20 1        
      32       16       17 1        
      33       17       18 1        
      34       17       37 1        
      35       17       38 1        
      36       18       19 1        
      37       18       39 1        
      38       18       40 1        
      39       19       20 1        
      40       19       41 1        
      41       19       42 1        
      42       20       21 2        
      43       20       22 2        

