#        1GCZ_R01_S0001_C0000_L00014_S0001_C0033_G0010_E0001.mol2
#        Tue Jun  6 14:15:45 2017
#        Descriptor:      7    35    25    11     8    13
#        Energy - RMSD - RMSD MassCentre:     -55.4559    999.9999    999.9999
#        Receptor:       1  Surface Point:     1  Conformer:     0
#        Ligand:        14  Surface Point:     1  Conformer:    33
#        BUDE Formal Charge: 0
#        ATOM Count: 42
#        Heavy ATOM Count: 22
@<TRIPOS>MOLECULE
ZINC61597528_1GCZ_R01_S0001_C0000_L00014_S0001_C0033_G0010_E0001
 42 43 0 0 0
SMALL
USER_CHARGES
@<TRIPOS>ATOM
       1 C1        -0.8655   -2.1633    0.6255 C.3       1 <0>         0.0268 
       2 O1         0.3177   -1.4431    0.9811 O.3       1 <0>        -0.3133 
       3 C2         0.2155   -0.4761    1.9460 C.ar      1 <0>         0.1677 
       4 C3        -0.9194    0.3429    1.9202 C.ar      1 <0>        -0.2433 
       5 C4        -1.1162    1.3516    2.8675 C.ar      1 <0>        -0.0391 
       6 C5        -0.1552    1.5585    3.8644 C.ar      1 <0>        -0.2473 
       7 C6         0.9932    0.7583    3.8906 C.ar      1 <0>         0.1672 
       8 C7         1.1696   -0.2613    2.9477 C.ar      1 <0>        -0.1836 
       9 O2         1.9518    0.9752    4.8451 O.3       1 <0>        -0.2863 
      10 C8         2.2769    2.3283    5.1740 C.3       1 <0>         0.0425 
      11 C9         3.3472    2.3433    6.2390 C.2       1 <0>         0.5165 
      12 O3         3.0760    2.7151    7.3795 O.2       1 <0>        -0.5075 
      13 N1         4.5843    1.9542    5.9434 N.am      1 <0>        -0.7277 
      14 C10        5.6263    1.9688    6.9803 C.3       1 <0>         0.0923 
      15 C11        5.3366    0.8755    8.0077 C.3       1 <0>         0.1538 
      16 N2         5.5039   -0.4429    7.3795 N.pl3     1 <0>        -0.9868 
      17 C12        4.3753   -1.3420    7.0987 C.3       1 <0>         0.0701 
      18 C13        5.0662   -2.6751    6.7565 C.3       1 <0>        -0.1323 
      19 C14        6.3235   -2.3240    5.9394 C.3       1 <0>        -0.5903 
      20 S1         7.0700   -0.9912    6.9101 S.o2      1 <0>         2.5602 
      21 O4         7.6887   -0.0325    6.0480 O.2       1 <0>        -0.9507 
      22 O5         7.7377   -1.5205    8.0587 O.2       1 <0>        -0.9534 
      23 H1        -1.6092   -1.4696    0.2391 H         1 <0>         0.1028 
      24 H2        -0.6249   -2.9003   -0.1378 H         1 <0>         0.0577 
      25 H3        -1.2608   -2.6670    1.5050 H         1 <0>         0.0578 
      26 H4        -1.6577    0.1891    1.1471 H         1 <0>         0.1309 
      27 H5        -2.0017    1.9686    2.8299 H         1 <0>         0.1300 
      28 H6        -0.2957    2.3282    4.6087 H         1 <0>         0.1298 
      29 H7         2.0682   -0.8525    3.0448 H         1 <0>         0.1413 
      30 H8         1.3891    2.8353    5.5460 H         1 <0>         0.0972 
      31 H9         2.6424    2.8401    4.2862 H         1 <0>         0.0968 
      32 H10        4.8082    1.6486    5.0073 H         1 <0>         0.4034 
      33 H11        5.6331    2.9377    7.4749 H         1 <0>         0.0764 
      34 H12        6.5967    1.7874    6.5227 H         1 <0>         0.0833 
      35 H13        4.3152    0.9776    8.3685 H         1 <0>         0.0878 
      36 H14        6.0278    0.9691    8.8426 H         1 <0>         0.0899 
      37 H15        3.7787   -1.4289    8.0044 H         1 <0>         0.0810 
      38 H16        3.7467   -0.9936    6.2818 H         1 <0>         0.0967 
      39 H17        4.4028   -3.2699    6.1321 H         1 <0>         0.1151 
      40 H18        5.3100   -3.2449    7.6507 H         1 <0>         0.0972 
      41 H19        7.0147   -3.1638    5.9168 H         1 <0>         0.1443 
      42 H20        6.1133   -1.9910    4.9252 H         1 <0>         0.1447 
@<TRIPOS>BOND
       1        1        2 1        
       2        1       23 1        
       3        1       24 1        
       4        1       25 1        
       5        2        3 1        
       6        3        8 ar       
       7        3        4 ar       
       8        4        5 ar       
       9        4       26 1        
      10        5        6 ar       
      11        5       27 1        
      12        6        7 ar       
      13        6       28 1        
      14        7        8 ar       
      15        7        9 1        
      16        8       29 1        
      17        9       10 1        
      18       10       11 1        
      19       10       30 1        
      20       10       31 1        
      21       11       12 2        
      22       11       13 am       
      23       13       14 1        
      24       13       32 1        
      25       14       15 1        
      26       14       33 1        
      27       14       34 1        
      28       15       16 1        
      29       15       35 1        
      30       15       36 1        
      31       16       20 1        
      32       16       17 1        
      33       17       18 1        
      34       17       37 1        
      35       17       38 1        
      36       18       19 1        
      37       18       39 1        
      38       18       40 1        
      39       19       20 1        
      40       19       41 1        
      41       19       42 1        
      42       20       21 2        
      43       20       22 2        

