#        1GCZ_R01_S0001_C0000_L00014_S0001_C0034_G0010_E0001.mol2
#        Tue Jun  6 09:59:49 2017
#        Descriptor:      1    17     8     9     7    14
#        Energy - RMSD - RMSD MassCentre:     -50.6952    999.9999    999.9999
#        Receptor:       1  Surface Point:     1  Conformer:     0
#        Ligand:        14  Surface Point:     1  Conformer:    34
#        BUDE Formal Charge: 0
#        ATOM Count: 42
#        Heavy ATOM Count: 22
@<TRIPOS>MOLECULE
ZINC61597528_1GCZ_R01_S0001_C0000_L00014_S0001_C0034_G0010_E0001
 42 43 0 0 0
SMALL
USER_CHARGES
@<TRIPOS>ATOM
       1 C1        -0.0697   -2.7896    0.7836 C.3       1 <0>         0.0268 
       2 O1         0.4022   -1.4400    0.8137 O.3       1 <0>        -0.3133 
       3 C2        -0.1521   -0.5858    1.7300 C.ar      1 <0>         0.1677 
       4 C3        -1.5337   -0.6719    1.9381 C.ar      1 <0>        -0.2433 
       5 C4        -2.1883    0.1521    2.8579 C.ar      1 <0>        -0.0391 
       6 C5        -1.4520    1.0937    3.5865 C.ar      1 <0>        -0.2473 
       7 C6        -0.0725    1.2027    3.3747 C.ar      1 <0>         0.1672 
       8 C7         0.5747    0.3588    2.4645 C.ar      1 <0>        -0.1836 
       9 O2         0.6492    2.1428    4.0622 O.3       1 <0>        -0.2863 
      10 C8         1.9383    1.7694    4.5557 C.3       1 <0>         0.0425 
      11 C9         1.7920    0.6206    5.5248 C.2       1 <0>         0.5165 
      12 O3         2.1979   -0.4991    5.2180 O.2       1 <0>        -0.5075 
      13 N1         1.2239    0.8198    6.7107 N.am      1 <0>        -0.7277 
      14 C10        1.0815   -0.2987    7.6540 C.3       1 <0>         0.0923 
      15 C11        2.4590   -0.6974    8.1814 C.3       1 <0>         0.1538 
      16 N2         2.3167   -1.8159    9.1247 N.pl3     1 <0>        -0.9868 
      17 C12        2.5066   -3.2196    8.7323 C.3       1 <0>         0.0701 
      18 C13        1.9493   -3.9988    9.9381 C.3       1 <0>        -0.1323 
      19 C14        2.3710   -3.2221   11.1992 C.3       1 <0>        -0.5903 
      20 S1         1.9367   -1.5158   10.7798 S.o2      1 <0>         2.5602 
      21 O4         2.8848   -0.6065   11.3449 O.2       1 <0>        -0.9507 
      22 O5         0.5263   -1.3129   10.9007 O.2       1 <0>        -0.9534 
      23 H1        -1.1332   -2.7961    0.5544 H         1 <0>         0.1028 
      24 H2         0.4701   -3.3449    0.0195 H         1 <0>         0.0577 
      25 H3         0.0957   -3.2526    1.7542 H         1 <0>         0.0578 
      26 H4        -2.1038   -1.3930    1.3711 H         1 <0>         0.1309 
      27 H5        -3.2548    0.0645    3.0043 H         1 <0>         0.1300 
      28 H6        -1.9411    1.7324    4.3070 H         1 <0>         0.1298 
      29 H7         1.6433    0.4850    2.3714 H         1 <0>         0.1413 
      30 H8         2.3918    2.6171    5.0651 H         1 <0>         0.0972 
      31 H9         2.5709    1.4639    3.7248 H         1 <0>         0.0968 
      32 H10        0.8902    1.7389    6.9637 H         1 <0>         0.4034 
      33 H11        0.6288   -1.1473    7.1456 H         1 <0>         0.0764 
      34 H12        0.4496    0.0059    8.4858 H         1 <0>         0.0833 
      35 H13        2.9124    0.1504    8.6908 H         1 <0>         0.0878 
      36 H14        3.0916   -1.0029    7.3507 H         1 <0>         0.0899 
      37 H15        1.9157   -3.4037    7.8375 H         1 <0>         0.0810 
      38 H16        3.5475   -3.4702    8.5381 H         1 <0>         0.0967 
      39 H17        2.4095   -4.9843    9.9687 H         1 <0>         0.1151 
      40 H18        0.8696   -4.1183    9.8778 H         1 <0>         0.0972 
      41 H19        1.7765   -3.5289   12.0570 H         1 <0>         0.1443 
      42 H20        3.4300   -3.3034   11.4354 H         1 <0>         0.1447 
@<TRIPOS>BOND
       1        1        2 1        
       2        1       23 1        
       3        1       24 1        
       4        1       25 1        
       5        2        3 1        
       6        3        8 ar       
       7        3        4 ar       
       8        4        5 ar       
       9        4       26 1        
      10        5        6 ar       
      11        5       27 1        
      12        6        7 ar       
      13        6       28 1        
      14        7        8 ar       
      15        7        9 1        
      16        8       29 1        
      17        9       10 1        
      18       10       11 1        
      19       10       30 1        
      20       10       31 1        
      21       11       12 2        
      22       11       13 am       
      23       13       14 1        
      24       13       32 1        
      25       14       15 1        
      26       14       33 1        
      27       14       34 1        
      28       15       16 1        
      29       15       35 1        
      30       15       36 1        
      31       16       20 1        
      32       16       17 1        
      33       17       18 1        
      34       17       37 1        
      35       17       38 1        
      36       18       19 1        
      37       18       39 1        
      38       18       40 1        
      39       19       20 1        
      40       19       41 1        
      41       19       42 1        
      42       20       21 2        
      43       20       22 2        

