#        1GCZ_R01_S0001_C0000_L00014_S0001_C0034_G0010_E0001.mol2
#        Tue Jun  6 14:15:47 2017
#        Descriptor:     36    18     7     9     6    14
#        Energy - RMSD - RMSD MassCentre:     -49.5473    999.9999    999.9999
#        Receptor:       1  Surface Point:     1  Conformer:     0
#        Ligand:        14  Surface Point:     1  Conformer:    34
#        BUDE Formal Charge: 0
#        ATOM Count: 42
#        Heavy ATOM Count: 22
@<TRIPOS>MOLECULE
ZINC61597528_1GCZ_R01_S0001_C0000_L00014_S0001_C0034_G0010_E0001
 42 43 0 0 0
SMALL
USER_CHARGES
@<TRIPOS>ATOM
       1 C1        -0.9271   -2.3763    0.7367 C.3       1 <0>         0.0268 
       2 O1        -0.1956   -1.1694    0.9672 O.3       1 <0>        -0.3133 
       3 C2        -0.4732   -0.4569    2.1038 C.ar      1 <0>         0.1677 
       4 C3        -1.8160   -0.3469    2.4838 C.ar      1 <0>        -0.2433 
       5 C4        -2.1970    0.3530    3.6320 C.ar      1 <0>        -0.0391 
       6 C5        -1.2181    0.9680    4.4215 C.ar      1 <0>        -0.2473 
       7 C6         0.1268    0.8812    4.0428 C.ar      1 <0>         0.1672 
       8 C7         0.4976    0.1612    2.9010 C.ar      1 <0>        -0.1836 
       9 O2         1.0868    1.5062    4.7943 O.3       1 <0>        -0.2863 
      10 C8         2.3192    0.8157    5.0166 C.3       1 <0>         0.0425 
      11 C9         2.0463   -0.4762    5.7490 C.2       1 <0>         0.5165 
      12 O3         2.1880   -1.5530    5.1718 O.2       1 <0>        -0.5075 
      13 N1         1.6522   -0.4498    7.0190 N.am      1 <0>        -0.7277 
      14 C10        1.3865   -1.7077    7.7319 C.3       1 <0>         0.0923 
      15 C11        2.7033   -2.4452    7.9695 C.3       1 <0>         0.1538 
      16 N2         2.4377   -3.7031    8.6824 N.pl3     1 <0>        -0.9868 
      17 C12        2.3039   -4.9961    7.9963 C.3       1 <0>         0.0701 
      18 C13        1.7278   -5.9149    9.0897 C.3       1 <0>        -0.1323 
      19 C14        2.4211   -5.5220   10.4074 C.3       1 <0>        -0.5903 
      20 S1         2.2947   -3.7164   10.4009 S.o2      1 <0>         2.5602 
      21 O4         3.4570   -3.1329   10.9955 O.2       1 <0>        -0.9507 
      22 O5         0.9725   -3.3048   10.7577 O.2       1 <0>        -0.9534 
      23 H1        -1.9883   -2.1480    0.6634 H         1 <0>         0.1028 
      24 H2        -0.5889   -2.8331   -0.1909 H         1 <0>         0.0577 
      25 H3        -0.7596   -3.0644    1.5627 H         1 <0>         0.0578 
      26 H4        -2.5726   -0.8147    1.8713 H         1 <0>         0.1309 
      27 H5        -3.2392    0.4209    3.9073 H         1 <0>         0.1300 
      28 H6        -1.4949    1.5057    5.3162 H         1 <0>         0.1298 
      29 H7         1.5549    0.1183    2.6848 H         1 <0>         0.1413 
      30 H8         2.9815    1.4380    5.6148 H         1 <0>         0.0972 
      31 H9         2.7909    0.5974    4.0607 H         1 <0>         0.0968 
      32 H10        1.5354    0.4339    7.4940 H         1 <0>         0.4034 
      33 H11        0.7249   -2.3312    7.1343 H         1 <0>         0.0764 
      34 H12        0.9154   -1.4906    8.6884 H         1 <0>         0.0833 
      35 H13        3.3655   -1.8229    8.5679 H         1 <0>         0.0878 
      36 H14        3.1751   -2.6636    7.0138 H         1 <0>         0.0899 
      37 H15        1.6006   -4.8723    7.1754 H         1 <0>         0.0810 
      38 H16        3.2489   -5.3734    7.6111 H         1 <0>         0.0967 
      39 H17        1.9834   -6.9470    8.8587 H         1 <0>         0.1151 
      40 H18        0.6454   -5.8296    9.1601 H         1 <0>         0.0972 
      41 H19        1.8674   -5.9038   11.2625 H         1 <0>         0.1443 
      42 H20        3.4611   -5.8352   10.4707 H         1 <0>         0.1447 
@<TRIPOS>BOND
       1        1        2 1        
       2        1       23 1        
       3        1       24 1        
       4        1       25 1        
       5        2        3 1        
       6        3        8 ar       
       7        3        4 ar       
       8        4        5 ar       
       9        4       26 1        
      10        5        6 ar       
      11        5       27 1        
      12        6        7 ar       
      13        6       28 1        
      14        7        8 ar       
      15        7        9 1        
      16        8       29 1        
      17        9       10 1        
      18       10       11 1        
      19       10       30 1        
      20       10       31 1        
      21       11       12 2        
      22       11       13 am       
      23       13       14 1        
      24       13       32 1        
      25       14       15 1        
      26       14       33 1        
      27       14       34 1        
      28       15       16 1        
      29       15       35 1        
      30       15       36 1        
      31       16       20 1        
      32       16       17 1        
      33       17       18 1        
      34       17       37 1        
      35       17       38 1        
      36       18       19 1        
      37       18       39 1        
      38       18       40 1        
      39       19       20 1        
      40       19       41 1        
      41       19       42 1        
      42       20       21 2        
      43       20       22 2        

