#        1GCZ_R01_S0001_C0000_L00003_S0001_C0026_G0010_E0001.mol2
#        Tue Jun  6 14:04:18 2017
#        Descriptor:     24    33    35    10     7    12
#        Energy - RMSD - RMSD MassCentre:     -61.0215    999.9999    999.9999
#        Receptor:       1  Surface Point:     1  Conformer:     0
#        Ligand:         3  Surface Point:     1  Conformer:    26
#        BUDE Formal Charge: 0
#        ATOM Count: 58
#        Heavy ATOM Count: 30
@<TRIPOS>MOLECULE
ZINC61580633_1GCZ_R01_S0001_C0000_L00003_S0001_C0026_G0010_E0001
 58 59 0 0 0
SMALL
USER_CHARGES
@<TRIPOS>ATOM
       1 C1         1.0866   -0.9380   -4.6117 C.3       1 <0>        -0.1532 
       2 C2         0.0687    0.0573   -4.0622 C.3       1 <0>        -0.1224 
       3 C3         0.8026    1.2079   -3.3749 C.3       1 <0>        -0.1198 
       4 C4        -0.2166    2.2045   -2.8246 C.3       1 <0>         0.0610 
       5 O1        -1.0180    1.5642   -1.8284 O.3       1 <0>        -0.3878 
       6 C5        -0.2320    1.0969   -0.7290 C.3       1 <0>         0.0487 
       7 C6        -1.1425    0.4250    0.2977 C.3       1 <0>         0.1244 
       8 N1        -0.3345   -0.0554    1.4277 N.am      1 <0>        -0.7216 
       9 C7        -0.9206   -0.6771    2.4471 C.2       1 <0>         0.5161 
      10 O2        -2.1382   -0.8502    2.4448 O.2       1 <0>        -0.5151 
      11 C8        -0.0906   -1.1706    3.6079 C.3       1 <0>         0.0490 
      12 O3         0.3975   -0.0521    4.3533 O.3       1 <0>        -0.3194 
      13 C9         1.1650   -0.2990    5.4361 C.2       1 <0>         0.5417 
      14 O4         1.4230   -1.4487    5.7526 O.2       1 <0>        -0.5337 
      15 C10        1.6939    0.8255    6.2398 C.2       1 <0>        -0.2559 
      16 C11        1.4541    2.2544    5.9380 C.2       1 <0>        -0.0791 
      17 C12        2.0547    3.0664    6.8110 C.2       1 <0>        -0.2585 
      18 S1         2.9457    2.1856    8.0611 S.3       1 <0>         0.3028 
      19 C13        2.4606    0.6510    7.3247 C.2       1 <0>         0.0893 
      20 N2         2.8155   -0.5933    7.7749 N.am      1 <0>        -0.6099 
      21 C14        3.5788   -0.7173    8.8570 C.2       1 <0>         0.5551 
      22 O5         3.9663    0.2858    9.4540 O.2       1 <0>        -0.4939 
      23 C15        3.9612   -2.0622    9.3420 C.ar      1 <0>        -0.1466 
      24 C16        4.7683   -2.1464   10.4828 C.ar      1 <0>        -0.0772 
      25 C17        5.2234   -3.3864   10.9466 C.ar      1 <0>        -0.1241 
      26 C18        4.8877   -4.5657   10.2713 C.ar      1 <0>        -0.0446 
      27 C19        4.0375   -4.4894    9.1617 C.ar      1 <0>        -0.1261 
      28 C20        3.5608   -3.2500    8.7184 C.ar      1 <0>        -0.0460 
      29 C21        5.4394   -5.8870   10.7511 C.3       1 <0>        -0.0928 
      30 C22        6.7650   -6.1685   10.0498 C.3       1 <0>        -0.1485 
      31 H1         1.6804   -1.3381   -3.7926 H         1 <0>         0.0567 
      32 H2         1.7394   -0.4337   -5.3211 H         1 <0>         0.0554 
      33 H3         0.5645   -1.7504   -5.1127 H         1 <0>         0.0557 
      34 H4        -0.5341    0.4488   -4.8789 H         1 <0>         0.0632 
      35 H5        -0.5759   -0.4425   -3.3420 H         1 <0>         0.0635 
      36 H6         1.4053    0.8178   -2.5576 H         1 <0>         0.0711 
      37 H7         1.4469    1.7091   -4.0945 H         1 <0>         0.0704 
      38 H8         0.3049    3.0502   -2.3813 H         1 <0>         0.0498 
      39 H9        -0.8552    2.5546   -3.6330 H         1 <0>         0.0505 
      40 H10        0.2791    1.9375   -0.2643 H         1 <0>         0.0584 
      41 H11        0.5023    0.3782   -1.0869 H         1 <0>         0.0702 
      42 H12       -1.6535   -0.4164   -0.1654 H         1 <0>         0.0872 
      43 H13       -1.8767    1.1430    0.6570 H         1 <0>         0.0805 
      44 H14        0.6656    0.0862    1.4307 H         1 <0>         0.4058 
      45 H15       -0.7039   -1.7958    4.2534 H         1 <0>         0.1008 
      46 H16        0.7502   -1.7503    3.2328 H         1 <0>         0.0999 
      47 H17        0.8475    2.5806    5.1062 H         1 <0>         0.1557 
      48 H18        1.9833    4.1425    6.7542 H         1 <0>         0.1929 
      49 H19        2.4973   -1.4170    7.2847 H         1 <0>         0.4317 
      50 H20        5.0480   -1.2462   11.0099 H         1 <0>         0.1287 
      51 H21        5.8403   -3.4395   11.8313 H         1 <0>         0.1326 
      52 H22        3.7517   -5.3997    8.6557 H         1 <0>         0.1342 
      53 H23        2.8619   -3.2584    7.8952 H         1 <0>         0.1410 
      54 H24        4.7310   -6.6800   10.5209 H         1 <0>         0.0777 
      55 H25        5.5992   -5.8436   11.8264 H         1 <0>         0.0771 
      56 H26        7.4764   -5.3814   10.2909 H         1 <0>         0.0623 
      57 H27        6.6064   -6.1976    8.9738 H         1 <0>         0.0572 
      58 H28        7.1558   -7.1267   10.3856 H         1 <0>         0.0578 
@<TRIPOS>BOND
       1        1        2 1        
       2        1       31 1        
       3        1       32 1        
       4        1       33 1        
       5        2        3 1        
       6        2       34 1        
       7        2       35 1        
       8        3        4 1        
       9        3       36 1        
      10        3       37 1        
      11        4        5 1        
      12        4       38 1        
      13        4       39 1        
      14        5        6 1        
      15        6        7 1        
      16        6       40 1        
      17        6       41 1        
      18        7        8 1        
      19        7       42 1        
      20        7       43 1        
      21        8        9 am       
      22        8       44 1        
      23        9       10 2        
      24        9       11 1        
      25       11       12 1        
      26       11       45 1        
      27       11       46 1        
      28       12       13 1        
      29       13       14 2        
      30       13       15 1        
      31       15       19 2        
      32       15       16 1        
      33       16       17 2        
      34       16       47 1        
      35       17       18 1        
      36       17       48 1        
      37       18       19 1        
      38       19       20 1        
      39       20       21 am       
      40       20       49 1        
      41       21       22 2        
      42       21       23 1        
      43       23       28 ar       
      44       23       24 ar       
      45       24       25 ar       
      46       24       50 1        
      47       25       26 ar       
      48       25       51 1        
      49       26       27 ar       
      50       26       29 1        
      51       27       28 ar       
      52       27       52 1        
      53       28       53 1        
      54       29       30 1        
      55       29       54 1        
      56       29       55 1        
      57       30       56 1        
      58       30       57 1        
      59       30       58 1        

