#        1GCZ_R01_S0001_C0000_L00014_S0001_C0035_G0010_E0001.mol2
#        Tue Jun  6 09:59:50 2017
#        Descriptor:     17     8    34     9    10    13
#        Energy - RMSD - RMSD MassCentre:     -59.3173    999.9999    999.9999
#        Receptor:       1  Surface Point:     1  Conformer:     0
#        Ligand:        14  Surface Point:     1  Conformer:    35
#        BUDE Formal Charge: 0
#        ATOM Count: 42
#        Heavy ATOM Count: 22
@<TRIPOS>MOLECULE
ZINC61597528_1GCZ_R01_S0001_C0000_L00014_S0001_C0035_G0010_E0001
 42 43 0 0 0
SMALL
USER_CHARGES
@<TRIPOS>ATOM
       1 C1         0.8149    1.4953   -0.9776 C.3       1 <0>         0.0268 
       2 O1        -0.2190    2.0035   -0.1304 O.3       1 <0>        -0.3133 
       3 C2        -0.5943    1.2483    0.9492 C.ar      1 <0>         0.1677 
       4 C3        -0.6882   -0.1363    0.7658 C.ar      1 <0>        -0.2433 
       5 C4        -1.0558   -0.9898    1.8096 C.ar      1 <0>        -0.0391 
       6 C5        -1.3462   -0.4532    3.0696 C.ar      1 <0>        -0.2473 
       7 C6        -1.2738    0.9316    3.2617 C.ar      1 <0>         0.1672 
       8 C7        -0.8858    1.7743    2.2134 C.ar      1 <0>        -0.1836 
       9 O2        -1.5858    1.4661    4.4840 O.3       1 <0>        -0.2863 
      10 C8        -1.1373    0.7746    5.6526 C.3       1 <0>         0.0425 
      11 C9         0.3708    0.7008    5.6451 C.2       1 <0>         0.5165 
      12 O3         0.9338   -0.3780    5.4668 O.2       1 <0>        -0.5075 
      13 N1         1.0910    1.8033    5.8316 N.am      1 <0>        -0.7277 
      14 C10        2.5593    1.7315    5.8242 C.3       1 <0>         0.0923 
      15 C11        3.1377    3.1262    6.0591 C.3       1 <0>         0.1538 
      16 N2         2.8278    3.5599    7.4290 N.pl3     1 <0>        -0.9868 
      17 C12        3.7756    3.4199    8.5439 C.3       1 <0>         0.0701 
      18 C13        2.9041    3.7011    9.7820 C.3       1 <0>        -0.1323 
      19 C14        1.9398    4.8376    9.3944 C.3       1 <0>        -0.5903 
      20 S1         1.3092    4.2942    7.7872 S.o2      1 <0>         2.5602 
      21 O4         1.0923    5.4185    6.9305 O.2       1 <0>        -0.9507 
      22 O5         0.3277    3.2677    7.9545 O.2       1 <0>        -0.9534 
      23 H1         0.4985    0.5462   -1.4052 H         1 <0>         0.1028 
      24 H2         1.0103    2.2069   -1.7770 H         1 <0>         0.0577 
      25 H3         1.7209    1.3469   -0.3939 H         1 <0>         0.0578 
      26 H4        -0.4718   -0.5505   -0.2079 H         1 <0>         0.1309 
      27 H5        -1.1178   -2.0555    1.6453 H         1 <0>         0.1300 
      28 H6        -1.6238   -1.0996    3.8890 H         1 <0>         0.1298 
      29 H7        -0.8298    2.8282    2.4424 H         1 <0>         0.1413 
      30 H8        -1.5490   -0.2325    5.6593 H         1 <0>         0.0972 
      31 H9        -1.4692    1.3086    6.5405 H         1 <0>         0.0968 
      32 H10        0.6299    2.6898    5.9781 H         1 <0>         0.4034 
      33 H11        2.8999    1.3558    4.8616 H         1 <0>         0.0764 
      34 H12        2.8943    1.0629    6.6145 H         1 <0>         0.0833 
      35 H13        2.6991    3.8254    5.3500 H         1 <0>         0.0878 
      36 H14        4.2168    3.0997    5.9231 H         1 <0>         0.0899 
      37 H15        4.1454    2.3966    8.5469 H         1 <0>         0.0810 
      38 H16        4.6149    4.1092    8.4780 H         1 <0>         0.0967 
      39 H17        3.5400    4.0487   10.5935 H         1 <0>         0.1151 
      40 H18        2.3709    2.8117   10.1111 H         1 <0>         0.0972 
      41 H19        1.1068    4.8903   10.0924 H         1 <0>         0.1443 
      42 H20        2.4154    5.8126    9.3123 H         1 <0>         0.1447 
@<TRIPOS>BOND
       1        1        2 1        
       2        1       23 1        
       3        1       24 1        
       4        1       25 1        
       5        2        3 1        
       6        3        8 ar       
       7        3        4 ar       
       8        4        5 ar       
       9        4       26 1        
      10        5        6 ar       
      11        5       27 1        
      12        6        7 ar       
      13        6       28 1        
      14        7        8 ar       
      15        7        9 1        
      16        8       29 1        
      17        9       10 1        
      18       10       11 1        
      19       10       30 1        
      20       10       31 1        
      21       11       12 2        
      22       11       13 am       
      23       13       14 1        
      24       13       32 1        
      25       14       15 1        
      26       14       33 1        
      27       14       34 1        
      28       15       16 1        
      29       15       35 1        
      30       15       36 1        
      31       16       20 1        
      32       16       17 1        
      33       17       18 1        
      34       17       37 1        
      35       17       38 1        
      36       18       19 1        
      37       18       39 1        
      38       18       40 1        
      39       19       20 1        
      40       19       41 1        
      41       19       42 1        
      42       20       21 2        
      43       20       22 2        

