#        1GCZ_R01_S0001_C0000_L00014_S0001_C0035_G0010_E0001.mol2
#        Tue Jun  6 14:15:48 2017
#        Descriptor:     16     7    33    10     9    13
#        Energy - RMSD - RMSD MassCentre:     -52.2655    999.9999    999.9999
#        Receptor:       1  Surface Point:     1  Conformer:     0
#        Ligand:        14  Surface Point:     1  Conformer:    35
#        BUDE Formal Charge: 0
#        ATOM Count: 42
#        Heavy ATOM Count: 22
@<TRIPOS>MOLECULE
ZINC61597528_1GCZ_R01_S0001_C0000_L00014_S0001_C0035_G0010_E0001
 42 43 0 0 0
SMALL
USER_CHARGES
@<TRIPOS>ATOM
       1 C1         0.6564    0.9565   -0.8492 C.3       1 <0>         0.0268 
       2 O1         0.0121    1.7252    0.1700 O.3       1 <0>        -0.3133 
       3 C2        -0.4094    1.0718    1.2979 C.ar      1 <0>         0.1677 
       4 C3        -0.9941   -0.1893    1.1317 C.ar      1 <0>        -0.2433 
       5 C4        -1.4474   -0.9356    2.2228 C.ar      1 <0>        -0.0391 
       6 C5        -1.3243   -0.4122    3.5154 C.ar      1 <0>        -0.2473 
       7 C6        -0.7581    0.8556    3.6940 C.ar      1 <0>         0.1672 
       8 C7        -0.2902    1.5852    2.5948 C.ar      1 <0>        -0.1836 
       9 O2        -0.6620    1.3864    4.9533 O.3       1 <0>        -0.2863 
      10 C8        -0.2839    0.5144    6.0217 C.3       1 <0>         0.0425 
      11 C9         1.0872   -0.0545    5.7448 C.2       1 <0>         0.5165 
      12 O3         1.2150   -1.2457    5.4667 O.2       1 <0>        -0.5075 
      13 N1         2.1574    0.7331    5.8016 N.am      1 <0>        -0.7277 
      14 C10        3.4922    0.1793    5.5319 C.3       1 <0>         0.0923 
      15 C11        4.5376    1.2860    5.6621 C.3       1 <0>         0.1538 
      16 N2         4.6264    1.7122    7.0662 N.pl3     1 <0>        -0.9868 
      17 C12        5.6441    1.1971    7.9935 C.3       1 <0>         0.0701 
      18 C13        5.1391    1.6741    9.3679 C.3       1 <0>        -0.1323 
      19 C14        4.5640    3.0876    9.1610 C.3       1 <0>        -0.5903 
      20 S1         3.5272    2.8847    7.6913 S.o2      1 <0>         2.5602 
      21 O4         3.5619    4.0680    6.8892 O.2       1 <0>        -0.9507 
      22 O5         2.2998    2.2333    8.0294 O.2       1 <0>        -0.9534 
      23 H1        -0.0284    0.1944   -1.2152 H         1 <0>         0.1028 
      24 H2         0.9434    1.6112   -1.6694 H         1 <0>         0.0577 
      25 H3         1.5435    0.4803   -0.4371 H         1 <0>         0.0578 
      26 H4        -1.0964   -0.5906    0.1342 H         1 <0>         0.1309 
      27 H5        -1.8917   -1.9081    2.0703 H         1 <0>         0.1300 
      28 H6        -1.6621   -0.9794    4.3700 H         1 <0>         0.1298 
      29 H7         0.1556    2.5447    2.8120 H         1 <0>         0.1413 
      30 H8        -1.0037   -0.2976    6.1000 H         1 <0>         0.0972 
      31 H9        -0.2624    1.0722    6.9556 H         1 <0>         0.0968 
      32 H10        2.0537    1.7115    6.0298 H         1 <0>         0.4034 
      33 H11        3.5196   -0.2277    4.5232 H         1 <0>         0.0764 
      34 H12        3.7094   -0.6101    6.2483 H         1 <0>         0.0833 
      35 H13        4.2483    2.1336    5.0441 H         1 <0>         0.0878 
      36 H14        5.5055    0.9118    5.3355 H         1 <0>         0.0899 
      37 H15        5.6421    0.1111    7.9285 H         1 <0>         0.0810 
      38 H16        6.6430    1.5719    7.7800 H         1 <0>         0.0967 
      39 H17        5.9814    1.7402   10.0534 H         1 <0>         0.1151 
      40 H18        4.4003    0.9931    9.7853 H         1 <0>         0.0972 
      41 H19        3.9271    3.3701    9.9966 H         1 <0>         0.1443 
      42 H20        5.3196    3.8530    8.9970 H         1 <0>         0.1447 
@<TRIPOS>BOND
       1        1        2 1        
       2        1       23 1        
       3        1       24 1        
       4        1       25 1        
       5        2        3 1        
       6        3        8 ar       
       7        3        4 ar       
       8        4        5 ar       
       9        4       26 1        
      10        5        6 ar       
      11        5       27 1        
      12        6        7 ar       
      13        6       28 1        
      14        7        8 ar       
      15        7        9 1        
      16        8       29 1        
      17        9       10 1        
      18       10       11 1        
      19       10       30 1        
      20       10       31 1        
      21       11       12 2        
      22       11       13 am       
      23       13       14 1        
      24       13       32 1        
      25       14       15 1        
      26       14       33 1        
      27       14       34 1        
      28       15       16 1        
      29       15       35 1        
      30       15       36 1        
      31       16       20 1        
      32       16       17 1        
      33       17       18 1        
      34       17       37 1        
      35       17       38 1        
      36       18       19 1        
      37       18       39 1        
      38       18       40 1        
      39       19       20 1        
      40       19       41 1        
      41       19       42 1        
      42       20       21 2        
      43       20       22 2        

