#        1GCZ_R01_S0001_C0000_L00014_S0001_C0036_G0010_E0001.mol2
#        Tue Jun  6 09:59:51 2017
#        Descriptor:     31     6    10    11     7    13
#        Energy - RMSD - RMSD MassCentre:     -49.3435    999.9999    999.9999
#        Receptor:       1  Surface Point:     1  Conformer:     0
#        Ligand:        14  Surface Point:     1  Conformer:    36
#        BUDE Formal Charge: 0
#        ATOM Count: 42
#        Heavy ATOM Count: 22
@<TRIPOS>MOLECULE
ZINC61597528_1GCZ_R01_S0001_C0000_L00014_S0001_C0036_G0010_E0001
 42 43 0 0 0
SMALL
USER_CHARGES
@<TRIPOS>ATOM
       1 C1        -0.3710   -2.1518    0.1705 C.3       1 <0>         0.0268 
       2 O1         0.0842   -0.8687    0.6079 O.3       1 <0>        -0.3133 
       3 C2        -0.1285   -0.5231    1.9164 C.ar      1 <0>         0.1677 
       4 C3        -1.3591   -0.8741    2.4839 C.ar      1 <0>        -0.2433 
       5 C4        -1.6649   -0.5715    3.8136 C.ar      1 <0>        -0.0391 
       6 C5        -0.7256    0.1055    4.6005 C.ar      1 <0>        -0.2473 
       7 C6         0.5019    0.4784    4.0400 C.ar      1 <0>         0.1672 
       8 C7         0.8040    0.1527    2.7125 C.ar      1 <0>        -0.1836 
       9 O2         1.4135    1.1675    4.7956 O.3       1 <0>        -0.2863 
      10 C8         1.5845    0.7779    6.1608 C.3       1 <0>         0.0425 
      11 C9         2.0515   -0.6569    6.2191 C.2       1 <0>         0.5165 
      12 O3         1.2988   -1.5327    6.6421 O.2       1 <0>        -0.5075 
      13 N1         3.2777   -0.9738    5.8128 N.am      1 <0>        -0.7277 
      14 C10        3.7323   -2.3706    5.8695 C.3       1 <0>         0.0923 
      15 C11        5.1660   -2.4601    5.3490 C.3       1 <0>         0.1538 
      16 N2         6.0694   -1.7730    6.2831 N.pl3     1 <0>        -0.9868 
      17 C12        6.1939   -2.1528    7.6977 C.3       1 <0>         0.0701 
      18 C13        7.4795   -1.4309    8.1424 C.3       1 <0>        -0.1323 
      19 C14        7.4770   -0.0565    7.4477 C.3       1 <0>        -0.5903 
      20 S1         7.0654   -0.4762    5.7358 S.o2      1 <0>         2.5602 
      21 O4         8.2065   -1.0204    5.0674 O.2       1 <0>        -0.9507 
      22 O5         6.2594    0.5485    5.1481 O.2       1 <0>        -0.9534 
      23 H1        -1.4496   -2.2162    0.2981 H         1 <0>         0.1028 
      24 H2        -0.1206   -2.2860   -0.8796 H         1 <0>         0.0577 
      25 H3         0.1116   -2.9276    0.7611 H         1 <0>         0.0578 
      26 H4        -2.0873   -1.3897    1.8755 H         1 <0>         0.1309 
      27 H5        -2.6196   -0.8558    4.2309 H         1 <0>         0.1300 
      28 H6        -0.9429    0.3398    5.6322 H         1 <0>         0.1298 
      29 H7         1.7787    0.4519    2.3564 H         1 <0>         0.1413 
      30 H8         0.6369    0.8719    6.6869 H         1 <0>         0.0972 
      31 H9         2.3266    1.4195    6.6314 H         1 <0>         0.0968 
      32 H10        3.8966   -0.2554    5.4652 H         1 <0>         0.4034 
      33 H11        3.0837   -2.9890    5.2526 H         1 <0>         0.0764 
      34 H12        3.6981   -2.7221    6.8987 H         1 <0>         0.0833 
      35 H13        5.2277   -1.9867    4.3713 H         1 <0>         0.0878 
      36 H14        5.4577   -3.5050    5.2658 H         1 <0>         0.0899 
      37 H15        5.3242   -1.7708    8.2283 H         1 <0>         0.0810 
      38 H16        6.2654   -3.2285    7.8448 H         1 <0>         0.0967 
      39 H17        8.3426   -1.9935    7.7933 H         1 <0>         0.1151 
      40 H18        7.5364   -1.3376    9.2250 H         1 <0>         0.0972 
      41 H19        6.6870    0.5756    7.8478 H         1 <0>         0.1443 
      42 H20        8.4298    0.4663    7.4980 H         1 <0>         0.1447 
@<TRIPOS>BOND
       1        1        2 1        
       2        1       23 1        
       3        1       24 1        
       4        1       25 1        
       5        2        3 1        
       6        3        8 ar       
       7        3        4 ar       
       8        4        5 ar       
       9        4       26 1        
      10        5        6 ar       
      11        5       27 1        
      12        6        7 ar       
      13        6       28 1        
      14        7        8 ar       
      15        7        9 1        
      16        8       29 1        
      17        9       10 1        
      18       10       11 1        
      19       10       30 1        
      20       10       31 1        
      21       11       12 2        
      22       11       13 am       
      23       13       14 1        
      24       13       32 1        
      25       14       15 1        
      26       14       33 1        
      27       14       34 1        
      28       15       16 1        
      29       15       35 1        
      30       15       36 1        
      31       16       20 1        
      32       16       17 1        
      33       17       18 1        
      34       17       37 1        
      35       17       38 1        
      36       18       19 1        
      37       18       39 1        
      38       18       40 1        
      39       19       20 1        
      40       19       41 1        
      41       19       42 1        
      42       20       21 2        
      43       20       22 2        

