#        1GCZ_R01_S0001_C0000_L00014_S0001_C0036_G0010_E0001.mol2
#        Tue Jun  6 14:15:50 2017
#        Descriptor:     24     5     9     7     6    14
#        Energy - RMSD - RMSD MassCentre:     -50.7236    999.9999    999.9999
#        Receptor:       1  Surface Point:     1  Conformer:     0
#        Ligand:        14  Surface Point:     1  Conformer:    36
#        BUDE Formal Charge: 0
#        ATOM Count: 42
#        Heavy ATOM Count: 22
@<TRIPOS>MOLECULE
ZINC61597528_1GCZ_R01_S0001_C0000_L00014_S0001_C0036_G0010_E0001
 42 43 0 0 0
SMALL
USER_CHARGES
@<TRIPOS>ATOM
       1 C1        -0.3814   -1.8230    0.0334 C.3       1 <0>         0.0268 
       2 O1         0.6066   -1.4704    1.0052 O.3       1 <0>        -0.3133 
       3 C2         0.2477   -0.5990    1.9995 C.ar      1 <0>         0.1677 
       4 C3        -0.5617    0.4865    1.6442 C.ar      1 <0>        -0.2433 
       5 C4        -0.9858    1.4239    2.5899 C.ar      1 <0>        -0.0391 
       6 C5        -0.5890    1.2846    3.9252 C.ar      1 <0>        -0.2473 
       7 C6         0.2352    0.2136    4.2907 C.ar      1 <0>         0.1672 
       8 C7         0.6377   -0.7295    3.3377 C.ar      1 <0>        -0.1836 
       9 O2         0.6517    0.0881    5.5898 O.3       1 <0>        -0.2863 
      10 C8        -0.2917    0.3701    6.6268 C.3       1 <0>         0.0425 
      11 C9        -1.4628   -0.5760    6.5114 C.2       1 <0>         0.5165 
      12 O3        -2.5627   -0.1541    6.1579 O.2       1 <0>        -0.5075 
      13 N1        -1.3050   -1.8664    6.7922 N.am      1 <0>        -0.7277 
      14 C10       -2.4452   -2.7874    6.6798 C.3       1 <0>         0.0923 
      15 C11       -1.9974   -4.1991    7.0557 C.3       1 <0>         0.1538 
      16 N2        -1.6682   -4.2427    8.4877 N.pl3     1 <0>        -0.9868 
      17 C12       -2.6354   -3.8983    9.5396 C.3       1 <0>         0.0701 
      18 C13       -1.9716   -4.4432   10.8180 C.3       1 <0>        -0.1323 
      19 C14       -0.4625   -4.1666   10.6842 C.3       1 <0>        -0.5903 
      20 S1        -0.1000   -4.7385    9.0056 S.o2      1 <0>         2.5602 
      21 O4        -0.0314   -6.1664    8.9690 O.2       1 <0>        -0.9507 
      22 O5         0.9006   -3.9153    8.4004 O.2       1 <0>        -0.9534 
      23 H1        -0.7077   -0.9281   -0.4924 H         1 <0>         0.1028 
      24 H2         0.0453   -2.5271   -0.6777 H         1 <0>         0.0577 
      25 H3        -1.2324   -2.2817    0.5325 H         1 <0>         0.0578 
      26 H4        -0.8620    0.5991    0.6129 H         1 <0>         0.1309 
      27 H5        -1.6132    2.2513    2.2929 H         1 <0>         0.1300 
      28 H6        -0.9146    1.9957    4.6701 H         1 <0>         0.1298 
      29 H7         1.2531   -1.5407    3.6976 H         1 <0>         0.1413 
      30 H8        -0.6433    1.3950    6.5294 H         1 <0>         0.0972 
      31 H9         0.1846    0.2400    7.5963 H         1 <0>         0.0968 
      32 H10       -0.4023   -2.2140    7.0825 H         1 <0>         0.4034 
      33 H11       -2.8145   -2.7852    5.6564 H         1 <0>         0.0764 
      34 H12       -3.2380   -2.4678    7.3529 H         1 <0>         0.0833 
      35 H13       -1.1185   -4.4684    6.4737 H         1 <0>         0.0878 
      36 H14       -2.8008   -4.9026    6.8473 H         1 <0>         0.0899 
      37 H15       -2.7259   -2.8147    9.5743 H         1 <0>         0.0810 
      38 H16       -3.6165   -4.3396    9.3767 H         1 <0>         0.0967 
      39 H17       -2.1231   -5.5194   10.8668 H         1 <0>         0.1151 
      40 H18       -2.3888   -3.9895   11.7146 H         1 <0>         0.0972 
      41 H19       -0.2608   -3.0987   10.7363 H         1 <0>         0.1443 
      42 H20        0.1502   -4.6945   11.4120 H         1 <0>         0.1447 
@<TRIPOS>BOND
       1        1        2 1        
       2        1       23 1        
       3        1       24 1        
       4        1       25 1        
       5        2        3 1        
       6        3        8 ar       
       7        3        4 ar       
       8        4        5 ar       
       9        4       26 1        
      10        5        6 ar       
      11        5       27 1        
      12        6        7 ar       
      13        6       28 1        
      14        7        8 ar       
      15        7        9 1        
      16        8       29 1        
      17        9       10 1        
      18       10       11 1        
      19       10       30 1        
      20       10       31 1        
      21       11       12 2        
      22       11       13 am       
      23       13       14 1        
      24       13       32 1        
      25       14       15 1        
      26       14       33 1        
      27       14       34 1        
      28       15       16 1        
      29       15       35 1        
      30       15       36 1        
      31       16       20 1        
      32       16       17 1        
      33       17       18 1        
      34       17       37 1        
      35       17       38 1        
      36       18       19 1        
      37       18       39 1        
      38       18       40 1        
      39       19       20 1        
      40       19       41 1        
      41       19       42 1        
      42       20       21 2        
      43       20       22 2        

