#        1GCZ_R01_S0001_C0000_L00014_S0001_C0037_G0010_E0001.mol2
#        Tue Jun  6 14:15:52 2017
#        Descriptor:     16     1    20     8     6    14
#        Energy - RMSD - RMSD MassCentre:     -49.8125    999.9999    999.9999
#        Receptor:       1  Surface Point:     1  Conformer:     0
#        Ligand:        14  Surface Point:     1  Conformer:    37
#        BUDE Formal Charge: 0
#        ATOM Count: 42
#        Heavy ATOM Count: 22
@<TRIPOS>MOLECULE
ZINC61597528_1GCZ_R01_S0001_C0000_L00014_S0001_C0037_G0010_E0001
 42 43 0 0 0
SMALL
USER_CHARGES
@<TRIPOS>ATOM
       1 C1        -0.7475   -2.4207    0.4517 C.3       1 <0>         0.0268 
       2 O1         0.0913   -1.3193    0.8096 O.3       1 <0>        -0.3133 
       3 C2        -0.3186   -0.5052    1.8323 C.ar      1 <0>         0.1677 
       4 C3        -1.6790   -0.1804    1.8918 C.ar      1 <0>        -0.2433 
       5 C4        -2.1930    0.6368    2.9024 C.ar      1 <0>        -0.0391 
       6 C5        -1.3309    1.1529    3.8773 C.ar      1 <0>        -0.2473 
       7 C6         0.0346    0.8507    3.8189 C.ar      1 <0>         0.1672 
       8 C7         0.5344    0.0154    2.8127 C.ar      1 <0>        -0.1836 
       9 O2         0.8884    1.3767    4.7523 O.3       1 <0>        -0.2863 
      10 C8         1.9196    0.5319    5.2698 C.3       1 <0>         0.0425 
      11 C9         1.2955   -0.6597    5.9561 C.2       1 <0>         0.5165 
      12 O3         1.3945   -1.7793    5.4570 O.2       1 <0>        -0.5075 
      13 N1         0.6383   -0.4981    7.1010 N.am      1 <0>        -0.7277 
      14 C10        0.0309   -1.6582    7.7692 C.3       1 <0>         0.0923 
      15 C11        1.1326   -2.5610    8.3222 C.3       1 <0>         0.1538 
      16 N2         0.5251   -3.7210    8.9902 N.pl3     1 <0>        -0.9868 
      17 C12       -0.3729   -4.6587    8.3010 C.3       1 <0>         0.0701 
      18 C13       -0.4353   -5.8573    9.2659 C.3       1 <0>        -0.1323 
      19 C14       -0.4609   -5.2756   10.6917 C.3       1 <0>        -0.5903 
      20 S1         0.8719   -4.0518   10.6465 S.o2      1 <0>         2.5602 
      21 O4         2.1450   -4.6975   10.7319 O.2       1 <0>        -0.9507 
      22 O5         0.5404   -2.9191   11.4540 O.2       1 <0>        -0.9534 
      23 H1        -1.7179   -2.0475    0.1312 H         1 <0>         0.1028 
      24 H2        -0.2863   -2.9780   -0.3609 H         1 <0>         0.0577 
      25 H3        -0.8755   -3.0731    1.3129 H         1 <0>         0.0578 
      26 H4        -2.3435   -0.5719    1.1359 H         1 <0>         0.1309 
      27 H5        -3.2470    0.8706    2.9302 H         1 <0>         0.1300 
      28 H6        -1.7132    1.7793    4.6697 H         1 <0>         0.1298 
      29 H7         1.5937   -0.1921    2.8454 H         1 <0>         0.1413 
      30 H8         2.5202    1.0886    5.9860 H         1 <0>         0.0972 
      31 H9         2.5522    0.1892    4.4536 H         1 <0>         0.0968 
      32 H10        0.5564    0.4209    7.5119 H         1 <0>         0.4034 
      33 H11       -0.5695   -2.2163    7.0537 H         1 <0>         0.0764 
      34 H12       -0.6016   -1.3169    8.5861 H         1 <0>         0.0833 
      35 H13        1.7332   -2.0041    9.0384 H         1 <0>         0.0878 
      36 H14        1.7653   -2.9036    7.5061 H         1 <0>         0.0899 
      37 H15       -1.3463   -4.1830    8.2007 H         1 <0>         0.0810 
      38 H16       -0.0091   -4.9521    7.3185 H         1 <0>         0.0967 
      39 H17        0.4673   -6.4537    9.1517 H         1 <0>         0.1151 
      40 H18       -1.2996   -6.4887    9.0704 H         1 <0>         0.0972 
      41 H19       -1.3992   -4.7576   10.8792 H         1 <0>         0.1443 
      42 H20       -0.2823   -6.0115   11.4729 H         1 <0>         0.1447 
@<TRIPOS>BOND
       1        1        2 1        
       2        1       23 1        
       3        1       24 1        
       4        1       25 1        
       5        2        3 1        
       6        3        8 ar       
       7        3        4 ar       
       8        4        5 ar       
       9        4       26 1        
      10        5        6 ar       
      11        5       27 1        
      12        6        7 ar       
      13        6       28 1        
      14        7        8 ar       
      15        7        9 1        
      16        8       29 1        
      17        9       10 1        
      18       10       11 1        
      19       10       30 1        
      20       10       31 1        
      21       11       12 2        
      22       11       13 am       
      23       13       14 1        
      24       13       32 1        
      25       14       15 1        
      26       14       33 1        
      27       14       34 1        
      28       15       16 1        
      29       15       35 1        
      30       15       36 1        
      31       16       20 1        
      32       16       17 1        
      33       17       18 1        
      34       17       37 1        
      35       17       38 1        
      36       18       19 1        
      37       18       39 1        
      38       18       40 1        
      39       19       20 1        
      40       19       41 1        
      41       19       42 1        
      42       20       21 2        
      43       20       22 2        

