#        1GCZ_R01_S0001_C0000_L00014_S0001_C0038_G0010_E0001.mol2
#        Tue Jun  6 09:59:52 2017
#        Descriptor:     35    20    20     8     7    15
#        Energy - RMSD - RMSD MassCentre:     -51.1953    999.9999    999.9999
#        Receptor:       1  Surface Point:     1  Conformer:     0
#        Ligand:        14  Surface Point:     1  Conformer:    38
#        BUDE Formal Charge: 0
#        ATOM Count: 42
#        Heavy ATOM Count: 22
@<TRIPOS>MOLECULE
ZINC61597528_1GCZ_R01_S0001_C0000_L00014_S0001_C0038_G0010_E0001
 42 43 0 0 0
SMALL
USER_CHARGES
@<TRIPOS>ATOM
       1 C1         3.0949   -5.4888    5.6774 C.3       1 <0>         0.0268 
       2 O1         1.6920   -5.7349    5.5505 O.3       1 <0>        -0.3133 
       3 C2         0.8732   -5.3257    6.5699 C.ar      1 <0>         0.1677 
       4 C3         1.3310   -5.5136    7.8793 C.ar      1 <0>        -0.2433 
       5 C4         0.5704   -5.1214    8.9842 C.ar      1 <0>        -0.0391 
       6 C5        -0.6840   -4.5328    8.7841 C.ar      1 <0>        -0.2473 
       7 C6        -1.1616   -4.3558    7.4802 C.ar      1 <0>         0.1672 
       8 C7        -0.3820   -4.7354    6.3811 C.ar      1 <0>        -0.1836 
       9 O2        -2.4010   -3.8080    7.2781 O.3       1 <0>        -0.2863 
      10 C8        -2.5539   -2.8709    6.2088 C.3       1 <0>         0.0425 
      11 C9        -1.6498   -1.6850    6.4468 C.2       1 <0>         0.5165 
      12 O3        -0.6693   -1.5039    5.7268 O.2       1 <0>        -0.5075 
      13 N1        -1.9140   -0.8360    7.4360 N.am      1 <0>        -0.7277 
      14 C10       -1.0339    0.3184    7.6677 C.3       1 <0>         0.0923 
      15 C11       -1.1972    1.3197    6.5252 C.3       1 <0>         0.1538 
      16 N2        -0.3171    2.4741    6.7570 N.pl3     1 <0>        -0.9868 
      17 C12        0.0975    3.3894    5.6841 C.3       1 <0>         0.0701 
      18 C13        0.6690    4.5949    6.4533 C.3       1 <0>        -0.1323 
      19 C14        1.4308    4.0251    7.6644 C.3       1 <0>        -0.5903 
      20 S1         0.2582    2.8254    8.3440 S.o2      1 <0>         2.5602 
      21 O4        -0.7746    3.4948    9.0722 O.2       1 <0>        -0.9507 
      22 O5         0.9509    1.6938    8.8775 O.2       1 <0>        -0.9534 
      23 H1         3.4749   -6.0048    6.5566 H         1 <0>         0.1028 
      24 H2         3.6083   -5.8553    4.7909 H         1 <0>         0.0577 
      25 H3         3.2670   -4.4196    5.7809 H         1 <0>         0.0578 
      26 H4         2.2953   -5.9745    8.0349 H         1 <0>         0.1309 
      27 H5         0.9461   -5.2730    9.9854 H         1 <0>         0.1300 
      28 H6        -1.2809   -4.2166    9.6268 H         1 <0>         0.1298 
      29 H7        -0.8059   -4.5465    5.4059 H         1 <0>         0.1413 
      30 H8        -3.5877   -2.5348    6.1652 H         1 <0>         0.0972 
      31 H9        -2.2864   -3.3468    5.2677 H         1 <0>         0.0968 
      32 H10       -2.7189   -0.9838    8.0278 H         1 <0>         0.4034 
      33 H11        0.0005   -0.0162    7.7107 H         1 <0>         0.0764 
      34 H12       -1.3008    0.7957    8.6083 H         1 <0>         0.0833 
      35 H13       -2.2312    1.6557    6.4817 H         1 <0>         0.0878 
      36 H14       -0.9299    0.8439    5.5840 H         1 <0>         0.0899 
      37 H15        0.8690    2.8952    5.0972 H         1 <0>         0.0810 
      38 H16       -0.7236    3.6809    5.0324 H         1 <0>         0.0967 
      39 H17       -0.1532    5.2066    6.8184 H         1 <0>         0.1151 
      40 H18        1.3099    5.2088    5.8238 H         1 <0>         0.0972 
      41 H19        2.3226    3.4917    7.3419 H         1 <0>         0.1443 
      42 H20        1.6958    4.7707    8.4111 H         1 <0>         0.1447 
@<TRIPOS>BOND
       1        1        2 1        
       2        1       23 1        
       3        1       24 1        
       4        1       25 1        
       5        2        3 1        
       6        3        8 ar       
       7        3        4 ar       
       8        4        5 ar       
       9        4       26 1        
      10        5        6 ar       
      11        5       27 1        
      12        6        7 ar       
      13        6       28 1        
      14        7        8 ar       
      15        7        9 1        
      16        8       29 1        
      17        9       10 1        
      18       10       11 1        
      19       10       30 1        
      20       10       31 1        
      21       11       12 2        
      22       11       13 am       
      23       13       14 1        
      24       13       32 1        
      25       14       15 1        
      26       14       33 1        
      27       14       34 1        
      28       15       16 1        
      29       15       35 1        
      30       15       36 1        
      31       16       20 1        
      32       16       17 1        
      33       17       18 1        
      34       17       37 1        
      35       17       38 1        
      36       18       19 1        
      37       18       39 1        
      38       18       40 1        
      39       19       20 1        
      40       19       41 1        
      41       19       42 1        
      42       20       21 2        
      43       20       22 2        

