#        1GCZ_R01_S0001_C0000_L00014_S0001_C0038_G0010_E0001.mol2
#        Tue Jun  6 14:15:53 2017
#        Descriptor:      6    20    11     9     6    14
#        Energy - RMSD - RMSD MassCentre:     -51.1540    999.9999    999.9999
#        Receptor:       1  Surface Point:     1  Conformer:     0
#        Ligand:        14  Surface Point:     1  Conformer:    38
#        BUDE Formal Charge: 0
#        ATOM Count: 42
#        Heavy ATOM Count: 22
@<TRIPOS>MOLECULE
ZINC61597528_1GCZ_R01_S0001_C0000_L00014_S0001_C0038_G0010_E0001
 42 43 0 0 0
SMALL
USER_CHARGES
@<TRIPOS>ATOM
       1 C1        -0.0640   -2.2289    0.4961 C.3       1 <0>         0.0268 
       2 O1         0.1385   -0.8912    0.9590 O.3       1 <0>        -0.3133 
       3 C2        -0.5031   -0.5042    2.1061 C.ar      1 <0>         0.1677 
       4 C3        -1.8230   -0.9354    2.2831 C.ar      1 <0>        -0.2433 
       5 C4        -2.5565   -0.5985    3.4241 C.ar      1 <0>        -0.0391 
       6 C5        -1.9657    0.1957    4.4141 C.ar      1 <0>        -0.2473 
       7 C6        -0.6526    0.6488    4.2410 C.ar      1 <0>         0.1672 
       8 C7         0.0783    0.2886    3.1027 C.ar      1 <0>        -0.1836 
       9 O2        -0.0788    1.4511    5.1918 O.3       1 <0>        -0.2863 
      10 C8         1.2906    1.2161    5.5302 C.3       1 <0>         0.0425 
      11 C9         1.4403   -0.1841    6.0755 C.2       1 <0>         0.5165 
      12 O3         2.0321   -1.0401    5.4200 O.2       1 <0>        -0.5075 
      13 N1         0.9317   -0.4918    7.2653 N.am      1 <0>        -0.7277 
      14 C10        1.0774   -1.8548    7.7961 C.3       1 <0>         0.0923 
      15 C11        2.5405   -2.1060    8.1576 C.3       1 <0>         0.1538 
      16 N2         2.6863   -3.4691    8.6884 N.pl3     1 <0>        -0.9868 
      17 C12        3.9735   -4.1778    8.7245 C.3       1 <0>         0.0701 
      18 C13        3.6969   -5.3585    9.6738 C.3       1 <0>        -0.1323 
      19 C14        2.2682   -5.8454    9.3681 C.3       1 <0>        -0.5903 
      20 S1         1.3211   -4.3034    9.3314 S.o2      1 <0>         2.5602 
      21 O4         1.0778   -3.8357   10.6607 O.2       1 <0>        -0.9507 
      22 O5         0.2826   -4.3758    8.3509 O.2       1 <0>        -0.9534 
      23 H1        -1.1198   -2.3824    0.2833 H         1 <0>         0.1028 
      24 H2         0.5164   -2.3900   -0.4100 H         1 <0>         0.0577 
      25 H3         0.2578   -2.9300    1.2632 H         1 <0>         0.0578 
      26 H4        -2.2821   -1.5419    1.5164 H         1 <0>         0.1309 
      27 H5        -3.5724   -0.9461    3.5406 H         1 <0>         0.1300 
      28 H6        -2.5159    0.4584    5.3056 H         1 <0>         0.1298 
      29 H7         1.0926    0.6558    3.0493 H         1 <0>         0.1413 
      30 H8         1.6070    1.9339    6.2841 H         1 <0>         0.0972 
      31 H9         1.9085    1.3264    4.6415 H         1 <0>         0.0968 
      32 H10        0.4456    0.2105    7.8044 H         1 <0>         0.4034 
      33 H11        0.7622   -2.5738    7.0427 H         1 <0>         0.0764 
      34 H12        0.4605   -1.9663    8.6854 H         1 <0>         0.0833 
      35 H13        2.8568   -1.3881    8.9116 H         1 <0>         0.0878 
      36 H14        3.1586   -1.9955    7.2690 H         1 <0>         0.0899 
      37 H15        4.1965   -4.5257    7.7181 H         1 <0>         0.0810 
      38 H16        4.7915   -3.5565    9.0835 H         1 <0>         0.0967 
      39 H17        3.7291   -5.0040   10.7018 H         1 <0>         0.1151 
      40 H18        4.4302   -6.1534    9.5541 H         1 <0>         0.0972 
      41 H19        2.2203   -6.3037    8.3824 H         1 <0>         0.1443 
      42 H20        1.8646   -6.5280   10.1131 H         1 <0>         0.1447 
@<TRIPOS>BOND
       1        1        2 1        
       2        1       23 1        
       3        1       24 1        
       4        1       25 1        
       5        2        3 1        
       6        3        8 ar       
       7        3        4 ar       
       8        4        5 ar       
       9        4       26 1        
      10        5        6 ar       
      11        5       27 1        
      12        6        7 ar       
      13        6       28 1        
      14        7        8 ar       
      15        7        9 1        
      16        8       29 1        
      17        9       10 1        
      18       10       11 1        
      19       10       30 1        
      20       10       31 1        
      21       11       12 2        
      22       11       13 am       
      23       13       14 1        
      24       13       32 1        
      25       14       15 1        
      26       14       33 1        
      27       14       34 1        
      28       15       16 1        
      29       15       35 1        
      30       15       36 1        
      31       16       20 1        
      32       16       17 1        
      33       17       18 1        
      34       17       37 1        
      35       17       38 1        
      36       18       19 1        
      37       18       39 1        
      38       18       40 1        
      39       19       20 1        
      40       19       41 1        
      41       19       42 1        
      42       20       21 2        
      43       20       22 2        

