#        1GCZ_R01_S0001_C0000_L00014_S0001_C0039_G0010_E0001.mol2
#        Tue Jun  6 09:59:53 2017
#        Descriptor:     22     7    17     7     6    13
#        Energy - RMSD - RMSD MassCentre:     -55.0217    999.9999    999.9999
#        Receptor:       1  Surface Point:     1  Conformer:     0
#        Ligand:        14  Surface Point:     1  Conformer:    39
#        BUDE Formal Charge: 0
#        ATOM Count: 42
#        Heavy ATOM Count: 22
@<TRIPOS>MOLECULE
ZINC61597528_1GCZ_R01_S0001_C0000_L00014_S0001_C0039_G0010_E0001
 42 43 0 0 0
SMALL
USER_CHARGES
@<TRIPOS>ATOM
       1 C1        -0.4702   -1.2477   -1.7724 C.3       1 <0>         0.0268 
       2 O1        -0.3817   -1.7606   -0.4406 O.3       1 <0>        -0.3133 
       3 C2        -0.4806   -0.8726    0.5979 C.ar      1 <0>         0.1677 
       4 C3         0.1696    0.3591    0.4569 C.ar      1 <0>        -0.2433 
       5 C4         0.1196    1.3324    1.4586 C.ar      1 <0>        -0.0391 
       6 C5        -0.5896    1.0729    2.6375 C.ar      1 <0>        -0.2473 
       7 C6        -1.2290   -0.1619    2.7990 C.ar      1 <0>         0.1672 
       8 C7        -1.1876   -1.1212    1.7803 C.ar      1 <0>        -0.1836 
       9 O2        -1.8995   -0.4339    3.9624 O.3       1 <0>        -0.2863 
      10 C8        -1.3051   -0.0134    5.1931 C.3       1 <0>         0.0425 
      11 C9        -2.1995   -0.4082    6.3438 C.2       1 <0>         0.5165 
      12 O3        -2.8004    0.4553    6.9809 O.2       1 <0>        -0.5075 
      13 N1        -2.3377   -1.6905    6.6686 N.am      1 <0>        -0.7277 
      14 C10       -1.6194   -2.7226    5.9071 C.3       1 <0>         0.0923 
      15 C11       -1.9499   -4.0997    6.4806 C.3       1 <0>         0.1538 
      16 N2        -1.3791   -4.2175    7.8301 N.pl3     1 <0>        -0.9868 
      17 C12       -1.8550   -5.1997    8.8147 C.3       1 <0>         0.0701 
      18 C13       -0.7445   -5.1925    9.8817 C.3       1 <0>        -0.1323 
      19 C14       -0.2873   -3.7297   10.0332 C.3       1 <0>        -0.5903 
      20 S1        -0.0758   -3.1985    8.3160 S.o2      1 <0>         2.5602 
      21 O4         1.1430   -3.7196    7.7791 O.2       1 <0>        -0.9507 
      22 O5        -0.4439   -1.8247    8.1669 O.2       1 <0>        -0.9534 
      23 H1         0.3375   -0.5386   -1.9417 H         1 <0>         0.1028 
      24 H2        -0.3884   -2.0679   -2.4824 H         1 <0>         0.0577 
      25 H3        -1.4270   -0.7468   -1.9045 H         1 <0>         0.0578 
      26 H4         0.7232    0.5573   -0.4491 H         1 <0>         0.1309 
      27 H5         0.6259    2.2770    1.3258 H         1 <0>         0.1300 
      28 H6        -0.6450    1.8173    3.4181 H         1 <0>         0.1298 
      29 H7        -1.7236   -2.0402    1.9664 H         1 <0>         0.1413 
      30 H8        -1.1802    1.0673    5.1858 H         1 <0>         0.0972 
      31 H9        -0.3341   -0.4905    5.3092 H         1 <0>         0.0968 
      32 H10       -2.9357   -1.9557    7.4381 H         1 <0>         0.4034 
      33 H11       -0.5480   -2.5479    5.9797 H         1 <0>         0.0764 
      34 H12       -1.9245   -2.6822    4.8635 H         1 <0>         0.0833 
      35 H13       -1.5269   -4.8709    5.8400 H         1 <0>         0.0878 
      36 H14       -3.0297   -4.2223    6.5322 H         1 <0>         0.0899 
      37 H15       -2.7965   -4.8395    9.2240 H         1 <0>         0.0810 
      38 H16       -1.9990   -6.1915    8.3911 H         1 <0>         0.0967 
      39 H17        0.0966   -5.7826    9.5242 H         1 <0>         0.1151 
      40 H18       -1.0888   -5.6093   10.8259 H         1 <0>         0.0972 
      41 H19       -1.0709   -3.1266   10.4873 H         1 <0>         0.1443 
      42 H20        0.6398   -3.6114   10.5904 H         1 <0>         0.1447 
@<TRIPOS>BOND
       1        1        2 1        
       2        1       23 1        
       3        1       24 1        
       4        1       25 1        
       5        2        3 1        
       6        3        8 ar       
       7        3        4 ar       
       8        4        5 ar       
       9        4       26 1        
      10        5        6 ar       
      11        5       27 1        
      12        6        7 ar       
      13        6       28 1        
      14        7        8 ar       
      15        7        9 1        
      16        8       29 1        
      17        9       10 1        
      18       10       11 1        
      19       10       30 1        
      20       10       31 1        
      21       11       12 2        
      22       11       13 am       
      23       13       14 1        
      24       13       32 1        
      25       14       15 1        
      26       14       33 1        
      27       14       34 1        
      28       15       16 1        
      29       15       35 1        
      30       15       36 1        
      31       16       20 1        
      32       16       17 1        
      33       17       18 1        
      34       17       37 1        
      35       17       38 1        
      36       18       19 1        
      37       18       39 1        
      38       18       40 1        
      39       19       20 1        
      40       19       41 1        
      41       19       42 1        
      42       20       21 2        
      43       20       22 2        

