#        1GCZ_R01_S0001_C0000_L00014_S0001_C0039_G0010_E0001.mol2
#        Tue Jun  6 14:15:55 2017
#        Descriptor:     33    12     5     7     5    14
#        Energy - RMSD - RMSD MassCentre:     -55.4604    999.9999    999.9999
#        Receptor:       1  Surface Point:     1  Conformer:     0
#        Ligand:        14  Surface Point:     1  Conformer:    39
#        BUDE Formal Charge: 0
#        ATOM Count: 42
#        Heavy ATOM Count: 22
@<TRIPOS>MOLECULE
ZINC61597528_1GCZ_R01_S0001_C0000_L00014_S0001_C0039_G0010_E0001
 42 43 0 0 0
SMALL
USER_CHARGES
@<TRIPOS>ATOM
       1 C1        -0.4681    0.9260    0.4309 C.3       1 <0>         0.0268 
       2 O1        -0.4134   -0.1774    1.3386 O.3       1 <0>        -0.3133 
       3 C2        -0.4227    0.0940    2.6814 C.ar      1 <0>         0.1677 
       4 C3         0.3338    1.1858    3.1235 C.ar      1 <0>        -0.2433 
       5 C4         0.3803    1.5456    4.4732 C.ar      1 <0>        -0.0391 
       6 C5        -0.3382    0.7960    5.4121 C.ar      1 <0>        -0.2473 
       7 C6        -1.0840   -0.3093    4.9857 C.ar      1 <0>         0.1672 
       8 C7        -1.1382   -0.6482    3.6285 C.ar      1 <0>        -0.1836 
       9 O2        -1.7653   -1.0652    5.9031 O.3       1 <0>        -0.2863 
      10 C8        -1.1242   -1.3452    7.1502 C.3       1 <0>         0.0425 
      11 C9        -2.0397   -2.1851    8.0084 C.2       1 <0>         0.5165 
      12 O3        -2.5549   -1.7018    9.0152 O.2       1 <0>        -0.5075 
      13 N1        -2.2890   -3.4484    7.6753 N.am      1 <0>        -0.7277 
      14 C10       -1.6731   -4.0260    6.4720 C.3       1 <0>         0.0923 
      15 C11       -2.1202   -5.4791    6.3198 C.3       1 <0>         0.1538 
      16 N2        -1.5497   -6.2833    7.4101 N.pl3     1 <0>        -0.9868 
      17 C12       -2.1024   -7.5834    7.8160 C.3       1 <0>         0.0701 
      18 C13       -0.9859   -8.1805    8.6927 C.3       1 <0>        -0.1323 
      19 C14       -0.3982   -7.0167    9.5124 C.3       1 <0>        -0.5903 
      20 S1        -0.1559   -5.7309    8.2618 S.o2      1 <0>         2.5602 
      21 O4         1.0062   -6.0111    7.4769 O.2       1 <0>        -0.9507 
      22 O5        -0.4010   -4.4368    8.8188 O.2       1 <0>        -0.9534 
      23 H1         0.3982    1.5658    0.5860 H         1 <0>         0.1028 
      24 H2        -0.4666    0.5542   -0.5915 H         1 <0>         0.0577 
      25 H3        -1.3773    1.4964    0.6088 H         1 <0>         0.0578 
      26 H4         0.8944    1.7602    2.4009 H         1 <0>         0.1309 
      27 H5         0.9680    2.3945    4.7903 H         1 <0>         0.1300 
      28 H6        -0.3195    1.0654    6.4578 H         1 <0>         0.1298 
      29 H7        -1.7525   -1.4985    3.3718 H         1 <0>         0.1413 
      30 H8        -0.9032   -0.4114    7.6629 H         1 <0>         0.0972 
      31 H9        -0.1989   -1.8881    6.9691 H         1 <0>         0.0968 
      32 H10       -2.9012   -4.0111    8.2486 H         1 <0>         0.4034 
      33 H11       -0.5898   -3.9884    6.5647 H         1 <0>         0.0764 
      34 H12       -1.9830   -3.4583    5.5971 H         1 <0>         0.0833 
      35 H13       -1.7740   -5.8674    5.3641 H         1 <0>         0.0878 
      36 H14       -3.2062   -5.5315    6.3612 H         1 <0>         0.0899 
      37 H15       -3.0041   -7.4011    8.3970 H         1 <0>         0.0810 
      38 H16       -2.3385   -8.2278    6.9717 H         1 <0>         0.0967 
      39 H17       -0.2043   -8.5805    8.0503 H         1 <0>         0.1151 
      40 H18       -1.3573   -8.9791    9.3315 H         1 <0>         0.0972 
      41 H19       -1.1203   -6.6568   10.2424 H         1 <0>         0.1443 
      42 H20        0.5409   -7.2545   10.0078 H         1 <0>         0.1447 
@<TRIPOS>BOND
       1        1        2 1        
       2        1       23 1        
       3        1       24 1        
       4        1       25 1        
       5        2        3 1        
       6        3        8 ar       
       7        3        4 ar       
       8        4        5 ar       
       9        4       26 1        
      10        5        6 ar       
      11        5       27 1        
      12        6        7 ar       
      13        6       28 1        
      14        7        8 ar       
      15        7        9 1        
      16        8       29 1        
      17        9       10 1        
      18       10       11 1        
      19       10       30 1        
      20       10       31 1        
      21       11       12 2        
      22       11       13 am       
      23       13       14 1        
      24       13       32 1        
      25       14       15 1        
      26       14       33 1        
      27       14       34 1        
      28       15       16 1        
      29       15       35 1        
      30       15       36 1        
      31       16       20 1        
      32       16       17 1        
      33       17       18 1        
      34       17       37 1        
      35       17       38 1        
      36       18       19 1        
      37       18       39 1        
      38       18       40 1        
      39       19       20 1        
      40       19       41 1        
      41       19       42 1        
      42       20       21 2        
      43       20       22 2        

