#        1GCZ_R01_S0001_C0000_L00003_S0001_C0027_G0010_E0001.mol2
#        Tue Jun  6 09:54:58 2017
#        Descriptor:      6    14     2    10    10    12
#        Energy - RMSD - RMSD MassCentre:     -74.9854    999.9999    999.9999
#        Receptor:       1  Surface Point:     1  Conformer:     0
#        Ligand:         3  Surface Point:     1  Conformer:    27
#        BUDE Formal Charge: 0
#        ATOM Count: 58
#        Heavy ATOM Count: 30
@<TRIPOS>MOLECULE
ZINC61580633_1GCZ_R01_S0001_C0000_L00003_S0001_C0027_G0010_E0001
 58 59 0 0 0
SMALL
USER_CHARGES
@<TRIPOS>ATOM
       1 C1         0.8065    3.2175   -4.6418 C.3       1 <0>        -0.1532 
       2 C2         0.3554    1.7985   -4.3079 C.3       1 <0>        -0.1224 
       3 C3         1.5583    0.9786   -3.8436 C.3       1 <0>        -0.1198 
       4 C4         1.1065   -0.4423   -3.5091 C.3       1 <0>         0.0610 
       5 O1         0.1806   -0.4033   -2.4201 O.3       1 <0>        -0.3878 
       6 C5         0.7657    0.1543   -1.2404 C.3       1 <0>         0.0487 
       7 C6        -0.2700    0.1684   -0.1171 C.3       1 <0>         0.1244 
       8 N1         0.3315    0.7415    1.0955 N.am      1 <0>        -0.7216 
       9 C7        -0.3910    0.8535    2.2066 C.2       1 <0>         0.5161 
      10 O2        -1.5620    0.4776    2.2201 O.2       1 <0>        -0.5151 
      11 C8         0.2269    1.4421    3.4523 C.3       1 <0>         0.0490 
      12 O3         1.1987    0.5335    3.9765 O.3       1 <0>        -0.3194 
      13 C9         1.8605    0.8913    5.0973 C.2       1 <0>         0.5417 
      14 O4         1.6222    1.9618    5.6319 O.2       1 <0>        -0.5337 
      15 C10        2.8757   -0.0154    5.6781 C.2       1 <0>        -0.2559 
      16 C11        3.2320   -1.3390    5.1198 C.2       1 <0>        -0.0791 
      17 C12        4.1673   -1.9605    5.8417 C.2       1 <0>        -0.2585 
      18 S1         4.6962   -1.0096    7.2375 S.3       1 <0>         0.3028 
      19 C13        3.5681    0.2778    6.7872 C.2       1 <0>         0.0893 
      20 N2         3.3858    1.4499    7.4726 N.am      1 <0>        -0.6099 
      21 C14        4.0964    1.6974    8.5693 C.2       1 <0>         0.5551 
      22 O5         4.9178    0.8735    8.9684 O.2       1 <0>        -0.4939 
      23 C15        3.8982    2.9641    9.3085 C.ar      1 <0>        -0.1466 
      24 C16        4.6651    3.1823   10.4594 C.ar      1 <0>        -0.0772 
      25 C17        4.4707    4.3270   11.2414 C.ar      1 <0>        -0.1241 
      26 C18        3.4977    5.2708   10.8923 C.ar      1 <0>        -0.0446 
      27 C19        2.7665    5.0818    9.7135 C.ar      1 <0>        -0.1261 
      28 C20        2.9842    3.9502    8.9185 C.ar      1 <0>        -0.0460 
      29 C21        3.2607    6.4674   11.7825 C.3       1 <0>        -0.0928 
      30 C22        2.1901    6.1277   12.8154 C.3       1 <0>        -0.1485 
      31 H1         1.5410    3.1846   -5.4437 H         1 <0>         0.0567 
      32 H2         1.2518    3.6728   -3.7598 H         1 <0>         0.0554 
      33 H3        -0.0523    3.8051   -4.9596 H         1 <0>         0.0557 
      34 H4        -0.3886    1.8310   -3.5146 H         1 <0>         0.0632 
      35 H5        -0.0774    1.3370   -5.1930 H         1 <0>         0.0635 
      36 H6         2.3026    0.9447   -4.6362 H         1 <0>         0.0711 
      37 H7         1.9915    1.4387   -2.9578 H         1 <0>         0.0704 
      38 H8         0.6246   -0.8844   -4.3785 H         1 <0>         0.0498 
      39 H9         1.9703   -1.0414   -3.2286 H         1 <0>         0.0505 
      40 H10        1.0936    1.1716   -1.4434 H         1 <0>         0.0584 
      41 H11        1.6192   -0.4490   -0.9382 H         1 <0>         0.0702 
      42 H12       -0.5980   -0.8486    0.0874 H         1 <0>         0.0872 
      43 H13       -1.1237    0.7721   -0.4177 H         1 <0>         0.0805 
      44 H14        1.2930    1.0504    1.0856 H         1 <0>         0.4058 
      45 H15        0.7090    2.3862    3.2075 H         1 <0>         0.1008 
      46 H16       -0.5482    1.6122    4.1966 H         1 <0>         0.0999 
      47 H17        2.7815   -1.7327    4.2207 H         1 <0>         0.1557 
      48 H18        4.5579   -2.9329    5.5806 H         1 <0>         0.1929 
      49 H19        2.7114    2.1264    7.1449 H         1 <0>         0.4317 
      50 H20        5.4120    2.4591   10.7516 H         1 <0>         0.1287 
      51 H21        5.0725    4.4877   12.1237 H         1 <0>         0.1326 
      52 H22        2.0357    5.8227    9.4245 H         1 <0>         0.1342 
      53 H23        2.4337    3.8878    7.9915 H         1 <0>         0.1410 
      54 H24        2.9282    7.3083   11.1776 H         1 <0>         0.0777 
      55 H25        4.1862    6.7292   12.2911 H         1 <0>         0.0771 
      56 H26        2.5291    5.2947   13.4277 H         1 <0>         0.0623 
      57 H27        1.2693    5.8524   12.3053 H         1 <0>         0.0572 
      58 H28        2.0099    6.9941   13.4482 H         1 <0>         0.0578 
@<TRIPOS>BOND
       1        1        2 1        
       2        1       31 1        
       3        1       32 1        
       4        1       33 1        
       5        2        3 1        
       6        2       34 1        
       7        2       35 1        
       8        3        4 1        
       9        3       36 1        
      10        3       37 1        
      11        4        5 1        
      12        4       38 1        
      13        4       39 1        
      14        5        6 1        
      15        6        7 1        
      16        6       40 1        
      17        6       41 1        
      18        7        8 1        
      19        7       42 1        
      20        7       43 1        
      21        8        9 am       
      22        8       44 1        
      23        9       10 2        
      24        9       11 1        
      25       11       12 1        
      26       11       45 1        
      27       11       46 1        
      28       12       13 1        
      29       13       14 2        
      30       13       15 1        
      31       15       19 2        
      32       15       16 1        
      33       16       17 2        
      34       16       47 1        
      35       17       18 1        
      36       17       48 1        
      37       18       19 1        
      38       19       20 1        
      39       20       21 am       
      40       20       49 1        
      41       21       22 2        
      42       21       23 1        
      43       23       28 ar       
      44       23       24 ar       
      45       24       25 ar       
      46       24       50 1        
      47       25       26 ar       
      48       25       51 1        
      49       26       27 ar       
      50       26       29 1        
      51       27       28 ar       
      52       27       52 1        
      53       28       53 1        
      54       29       30 1        
      55       29       54 1        
      56       29       55 1        
      57       30       56 1        
      58       30       57 1        
      59       30       58 1        

