#        1GCZ_R01_S0001_C0000_L00014_S0001_C0040_G0010_E0001.mol2
#        Tue Jun  6 09:59:53 2017
#        Descriptor:      8    29    22     9     8    14
#        Energy - RMSD - RMSD MassCentre:     -43.4788    999.9999    999.9999
#        Receptor:       1  Surface Point:     1  Conformer:     0
#        Ligand:        14  Surface Point:     1  Conformer:    40
#        BUDE Formal Charge: 0
#        ATOM Count: 42
#        Heavy ATOM Count: 22
@<TRIPOS>MOLECULE
ZINC61597528_1GCZ_R01_S0001_C0000_L00014_S0001_C0040_G0010_E0001
 42 43 0 0 0
SMALL
USER_CHARGES
@<TRIPOS>ATOM
       1 C1        -0.3707    1.4354    1.8484 C.3       1 <0>         0.0268 
       2 O1         0.3199    0.9055    2.9829 O.3       1 <0>        -0.3133 
       3 C2        -0.4283    0.3737    3.9998 C.ar      1 <0>         0.1677 
       4 C3        -1.6019    1.0480    4.3573 C.ar      1 <0>        -0.2433 
       5 C4        -2.4345    0.5783    5.3769 C.ar      1 <0>        -0.0391 
       6 C5        -2.0885   -0.5898    6.0667 C.ar      1 <0>        -0.2473 
       7 C6        -0.9083   -1.2638    5.7314 C.ar      1 <0>         0.1672 
       8 C7        -0.0924   -0.7939    4.6954 C.ar      1 <0>        -0.1836 
       9 O2        -0.5483   -2.3906    6.4225 O.3       1 <0>        -0.2863 
      10 C8        -0.7451   -2.4003    7.8389 C.3       1 <0>         0.0425 
      11 C9         0.0693   -1.2946    8.4668 C.2       1 <0>         0.5165 
      12 O3        -0.4936   -0.3151    8.9529 O.2       1 <0>        -0.5075 
      13 N1         1.3963   -1.3800    8.4942 N.am      1 <0>        -0.7277 
      14 C10        2.1892   -0.3035    9.1054 C.3       1 <0>         0.0923 
      15 C11        2.1092    0.9465    8.2304 C.3       1 <0>         0.1538 
      16 N2         2.8020    0.6980    6.9579 N.pl3     1 <0>        -0.9868 
      17 C12        2.5563    1.4942    5.7470 C.3       1 <0>         0.0701 
      18 C13        3.7396    1.1197    4.8353 C.3       1 <0>        -0.1323 
      19 C14        3.9929   -0.3860    5.0368 C.3       1 <0>        -0.5903 
      20 S1         3.9814   -0.5542    6.8389 S.o2      1 <0>         2.5602 
      21 O4         5.2131   -0.0828    7.3918 O.2       1 <0>        -0.9507 
      22 O5         3.4085   -1.8072    7.2221 O.2       1 <0>        -0.9534 
      23 H1        -1.0176    2.2503    2.1664 H         1 <0>         0.1028 
      24 H2         0.3524    1.8065    1.1252 H         1 <0>         0.0577 
      25 H3        -0.9716    0.6516    1.3919 H         1 <0>         0.0578 
      26 H4        -1.8657    1.9533    3.8309 H         1 <0>         0.1309 
      27 H5        -3.3370    1.1134    5.6326 H         1 <0>         0.1300 
      28 H6        -2.7250   -0.9708    6.8517 H         1 <0>         0.1298 
      29 H7         0.7891   -1.3786    4.4778 H         1 <0>         0.1413 
      30 H8        -0.4269   -3.3588    8.2435 H         1 <0>         0.0972 
      31 H9        -1.7989   -2.2443    8.0603 H         1 <0>         0.0968 
      32 H10        1.8596   -2.1839    8.0953 H         1 <0>         0.4034 
      33 H11        3.2266   -0.6200    9.1906 H         1 <0>         0.0764 
      34 H12        1.7952   -0.0790   10.0944 H         1 <0>         0.0833 
      35 H13        2.5835    1.7803    8.7440 H         1 <0>         0.0878 
      36 H14        1.0664    1.1866    8.0340 H         1 <0>         0.0899 
      37 H15        1.6104    1.1722    5.3166 H         1 <0>         0.0810 
      38 H16        2.5214    2.5643    5.9411 H         1 <0>         0.0967 
      39 H17        4.6239    1.6654    5.1574 H         1 <0>         0.1151 
      40 H18        3.5390    1.3609    3.7935 H         1 <0>         0.0972 
      41 H19        3.1716   -0.9723    4.6300 H         1 <0>         0.1443 
      42 H20        4.9367   -0.7351    4.6230 H         1 <0>         0.1447 
@<TRIPOS>BOND
       1        1        2 1        
       2        1       23 1        
       3        1       24 1        
       4        1       25 1        
       5        2        3 1        
       6        3        8 ar       
       7        3        4 ar       
       8        4        5 ar       
       9        4       26 1        
      10        5        6 ar       
      11        5       27 1        
      12        6        7 ar       
      13        6       28 1        
      14        7        8 ar       
      15        7        9 1        
      16        8       29 1        
      17        9       10 1        
      18       10       11 1        
      19       10       30 1        
      20       10       31 1        
      21       11       12 2        
      22       11       13 am       
      23       13       14 1        
      24       13       32 1        
      25       14       15 1        
      26       14       33 1        
      27       14       34 1        
      28       15       16 1        
      29       15       35 1        
      30       15       36 1        
      31       16       20 1        
      32       16       17 1        
      33       17       18 1        
      34       17       37 1        
      35       17       38 1        
      36       18       19 1        
      37       18       39 1        
      38       18       40 1        
      39       19       20 1        
      40       19       41 1        
      41       19       42 1        
      42       20       21 2        
      43       20       22 2        

