#        1GCZ_R01_S0001_C0000_L00014_S0001_C0040_G0010_E0001.mol2
#        Tue Jun  6 14:15:57 2017
#        Descriptor:     28    33    31     9     8    14
#        Energy - RMSD - RMSD MassCentre:     -42.3792    999.9999    999.9999
#        Receptor:       1  Surface Point:     1  Conformer:     0
#        Ligand:        14  Surface Point:     1  Conformer:    40
#        BUDE Formal Charge: 0
#        ATOM Count: 42
#        Heavy ATOM Count: 22
@<TRIPOS>MOLECULE
ZINC61597528_1GCZ_R01_S0001_C0000_L00014_S0001_C0040_G0010_E0001
 42 43 0 0 0
SMALL
USER_CHARGES
@<TRIPOS>ATOM
       1 C1         4.8915   -2.4340    5.6724 C.3       1 <0>         0.0268 
       2 O1         3.5485   -1.9637    5.8143 O.3       1 <0>        -0.3133 
       3 C2         3.2035   -0.8024    5.1746 C.ar      1 <0>         0.1677 
       4 C3         4.1373    0.2406    5.1839 C.ar      1 <0>        -0.2433 
       5 C4         3.8791    1.4600    4.5517 C.ar      1 <0>        -0.0391 
       6 C5         2.6560    1.6528    3.8983 C.ar      1 <0>        -0.2473 
       7 C6         1.7061    0.6245    3.8971 C.ar      1 <0>         0.1672 
       8 C7         1.9841   -0.5993    4.5174 C.ar      1 <0>        -0.1836 
       9 O2         0.4955    0.8173    3.2855 O.3       1 <0>        -0.2863 
      10 C8        -0.1420    2.0873    3.4452 C.3       1 <0>         0.0425 
      11 C9        -0.4146    2.3320    4.9101 C.2       1 <0>         0.5165 
      12 O3         0.2171    3.1945    5.5182 O.2       1 <0>        -0.5075 
      13 N1        -1.3382    1.6144    5.5432 N.am      1 <0>        -0.7277 
      14 C10       -1.6035    1.8526    6.9693 C.3       1 <0>         0.0923 
      15 C11       -0.4100    1.3749    7.7951 C.3       1 <0>         0.1538 
      16 N2        -0.3111   -0.0893    7.7102 N.pl3     1 <0>        -0.9868 
      17 C12        0.9266   -0.8240    8.0086 C.3       1 <0>         0.0701 
      18 C13        0.4450   -2.2802    8.1466 C.3       1 <0>        -0.1323 
      19 C14       -0.6371   -2.4913    7.0713 C.3       1 <0>        -0.5903 
      20 S1        -1.6873   -1.0308    7.2710 S.o2      1 <0>         2.5602 
      21 O4        -2.5318   -1.1764    8.4158 O.2       1 <0>        -0.9507 
      22 O5        -2.1937   -0.6002    6.0048 O.2       1 <0>        -0.9534 
      23 H1         5.5794   -1.6897    6.0678 H         1 <0>         0.1028 
      24 H2         5.0087   -3.3655    6.2220 H         1 <0>         0.0577 
      25 H3         5.1061   -2.6039    4.6194 H         1 <0>         0.0578 
      26 H4         5.0780    0.0955    5.6941 H         1 <0>         0.1309 
      27 H5         4.6164    2.2489    4.5689 H         1 <0>         0.1300 
      28 H6         2.4439    2.5862    3.3980 H         1 <0>         0.1298 
      29 H7         1.2133   -1.3531    4.4555 H         1 <0>         0.1413 
      30 H8        -1.0813    2.0940    2.8961 H         1 <0>         0.0972 
      31 H9         0.5084    2.8710    3.0620 H         1 <0>         0.0968 
      32 H10       -1.8575    0.9059    5.0447 H         1 <0>         0.4034 
      33 H11       -2.4941    1.3045    7.2696 H         1 <0>         0.0764 
      34 H12       -1.7575    2.9165    7.1373 H         1 <0>         0.0833 
      35 H13       -0.5461    1.6690    8.8339 H         1 <0>         0.0878 
      36 H14        0.5027    1.8225    7.4074 H         1 <0>         0.0899 
      37 H15        1.5998   -0.7106    7.1615 H         1 <0>         0.0810 
      38 H16        1.4202   -0.4763    8.9138 H         1 <0>         0.0967 
      39 H17       -0.0097   -2.4136    9.1259 H         1 <0>         0.1151 
      40 H18        1.2644   -2.9883    8.0414 H         1 <0>         0.0972 
      41 H19       -0.1996   -2.4685    6.0753 H         1 <0>         0.1443 
      42 H20       -1.2164   -3.4032    7.1997 H         1 <0>         0.1447 
@<TRIPOS>BOND
       1        1        2 1        
       2        1       23 1        
       3        1       24 1        
       4        1       25 1        
       5        2        3 1        
       6        3        8 ar       
       7        3        4 ar       
       8        4        5 ar       
       9        4       26 1        
      10        5        6 ar       
      11        5       27 1        
      12        6        7 ar       
      13        6       28 1        
      14        7        8 ar       
      15        7        9 1        
      16        8       29 1        
      17        9       10 1        
      18       10       11 1        
      19       10       30 1        
      20       10       31 1        
      21       11       12 2        
      22       11       13 am       
      23       13       14 1        
      24       13       32 1        
      25       14       15 1        
      26       14       33 1        
      27       14       34 1        
      28       15       16 1        
      29       15       35 1        
      30       15       36 1        
      31       16       20 1        
      32       16       17 1        
      33       17       18 1        
      34       17       37 1        
      35       17       38 1        
      36       18       19 1        
      37       18       39 1        
      38       18       40 1        
      39       19       20 1        
      40       19       41 1        
      41       19       42 1        
      42       20       21 2        
      43       20       22 2        

