#        1GCZ_R01_S0001_C0000_L00014_S0001_C0041_G0010_E0001.mol2
#        Tue Jun  6 09:59:54 2017
#        Descriptor:     17     4    35    11     9    12
#        Energy - RMSD - RMSD MassCentre:     -53.6976    999.9999    999.9999
#        Receptor:       1  Surface Point:     1  Conformer:     0
#        Ligand:        14  Surface Point:     1  Conformer:    41
#        BUDE Formal Charge: 0
#        ATOM Count: 42
#        Heavy ATOM Count: 22
@<TRIPOS>MOLECULE
ZINC61597528_1GCZ_R01_S0001_C0000_L00014_S0001_C0041_G0010_E0001
 42 43 0 0 0
SMALL
USER_CHARGES
@<TRIPOS>ATOM
       1 C1         0.1846   -0.0329   -1.1990 C.3       1 <0>         0.0268 
       2 O1        -0.0011    1.0916   -0.3354 O.3       1 <0>        -0.3133 
       3 C2        -0.2300    0.8504    0.9936 C.ar      1 <0>         0.1677 
       4 C3        -1.0758   -0.2167    1.3186 C.ar      1 <0>        -0.2433 
       5 C4        -1.3628   -0.5451    2.6464 C.ar      1 <0>        -0.0391 
       6 C5        -0.8005    0.2118    3.6812 C.ar      1 <0>        -0.2473 
       7 C6         0.0325    1.2928    3.3695 C.ar      1 <0>         0.1672 
       8 C7         0.3278    1.6000    2.0360 C.ar      1 <0>        -0.1836 
       9 O2         0.5620    2.0562    4.3765 O.3       1 <0>        -0.2863 
      10 C8         1.0288    1.3871    5.5509 C.3       1 <0>         0.0425 
      11 C9         2.1364    0.4310    5.1777 C.2       1 <0>         0.5165 
      12 O3         1.9471   -0.7829    5.2340 O.2       1 <0>        -0.5075 
      13 N1         3.3176    0.9021    4.7881 N.am      1 <0>        -0.7277 
      14 C10        4.3960   -0.0286    4.4248 C.3       1 <0>         0.0923 
      15 C11        5.6365    0.7648    4.0173 C.3       1 <0>         0.1538 
      16 N2         6.1766    1.4654    5.1913 N.pl3     1 <0>        -0.9868 
      17 C12        7.5624    1.9504    5.2633 C.3       1 <0>         0.0701 
      18 C13        7.5366    2.9068    6.4701 C.3       1 <0>        -0.1323 
      19 C14        6.6219    2.2597    7.5268 C.3       1 <0>        -0.5903 
      20 S1         5.1716    1.7780    6.5570 S.o2      1 <0>         2.5602 
      21 O4         4.3560    2.9193    6.2788 O.2       1 <0>        -0.9507 
      22 O5         4.6207    0.5548    7.0523 O.2       1 <0>        -0.9534 
      23 H1        -0.7097   -0.6525   -1.1840 H         1 <0>         0.1028 
      24 H2         0.3681    0.3158   -2.2131 H         1 <0>         0.0577 
      25 H3         1.0364   -0.6161   -0.8557 H         1 <0>         0.0578 
      26 H4        -1.5161   -0.7966    0.5209 H         1 <0>         0.1309 
      27 H5        -2.0153   -1.3754    2.8730 H         1 <0>         0.1300 
      28 H6        -1.0054   -0.0337    4.7127 H         1 <0>         0.1298 
      29 H7         0.9962    2.4326    1.8735 H         1 <0>         0.1413 
      30 H8         0.2091    0.8326    6.0032 H         1 <0>         0.0972 
      31 H9         1.4069    2.1199    6.2605 H         1 <0>         0.0968 
      32 H10        3.4742    1.8987    4.7414 H         1 <0>         0.4034 
      33 H11        4.0741   -0.6504    3.5920 H         1 <0>         0.0764 
      34 H12        4.6342   -0.6597    5.2786 H         1 <0>         0.0833 
      35 H13        5.3680    1.4918    3.2535 H         1 <0>         0.0878 
      36 H14        6.3893    0.0852    3.6232 H         1 <0>         0.0899 
      37 H15        8.2102    1.0967    5.4513 H         1 <0>         0.0810 
      38 H16        7.8836    2.4571    4.3556 H         1 <0>         0.0967 
      39 H17        7.0964    3.8536    6.1647 H         1 <0>         0.1151 
      40 H18        8.5355    3.0938    6.8587 H         1 <0>         0.0972 
      41 H19        7.0798    1.3603    7.9333 H         1 <0>         0.1443 
      42 H20        6.3393    2.9290    8.3366 H         1 <0>         0.1447 
@<TRIPOS>BOND
       1        1        2 1        
       2        1       23 1        
       3        1       24 1        
       4        1       25 1        
       5        2        3 1        
       6        3        8 ar       
       7        3        4 ar       
       8        4        5 ar       
       9        4       26 1        
      10        5        6 ar       
      11        5       27 1        
      12        6        7 ar       
      13        6       28 1        
      14        7        8 ar       
      15        7        9 1        
      16        8       29 1        
      17        9       10 1        
      18       10       11 1        
      19       10       30 1        
      20       10       31 1        
      21       11       12 2        
      22       11       13 am       
      23       13       14 1        
      24       13       32 1        
      25       14       15 1        
      26       14       33 1        
      27       14       34 1        
      28       15       16 1        
      29       15       35 1        
      30       15       36 1        
      31       16       20 1        
      32       16       17 1        
      33       17       18 1        
      34       17       37 1        
      35       17       38 1        
      36       18       19 1        
      37       18       39 1        
      38       18       40 1        
      39       19       20 1        
      40       19       41 1        
      41       19       42 1        
      42       20       21 2        
      43       20       22 2        

