#        1GCZ_R01_S0001_C0000_L00014_S0001_C0041_G0010_E0001.mol2
#        Tue Jun  6 14:15:58 2017
#        Descriptor:     14     4    35    11     8    13
#        Energy - RMSD - RMSD MassCentre:     -48.5350    999.9999    999.9999
#        Receptor:       1  Surface Point:     1  Conformer:     0
#        Ligand:        14  Surface Point:     1  Conformer:    41
#        BUDE Formal Charge: 0
#        ATOM Count: 42
#        Heavy ATOM Count: 22
@<TRIPOS>MOLECULE
ZINC61597528_1GCZ_R01_S0001_C0000_L00014_S0001_C0041_G0010_E0001
 42 43 0 0 0
SMALL
USER_CHARGES
@<TRIPOS>ATOM
       1 C1        -0.6545   -1.8558    0.6155 C.3       1 <0>         0.0268 
       2 O1        -0.3697   -0.5012    0.9745 O.3       1 <0>        -0.3133 
       3 C2        -0.4849   -0.1480    2.2931 C.ar      1 <0>         0.1677 
       4 C3        -1.5677   -0.6726    3.0086 C.ar      1 <0>        -0.2433 
       5 C4        -1.7647   -0.3760    4.3601 C.ar      1 <0>        -0.0391 
       6 C5        -0.8657    0.4715    5.0184 C.ar      1 <0>        -0.2473 
       7 C6         0.2111    1.0173    4.3099 C.ar      1 <0>         0.1672 
       8 C7         0.4086    0.6975    2.9613 C.ar      1 <0>        -0.1836 
       9 O2         1.0775    1.8712    4.9402 O.3       1 <0>        -0.2863 
      10 C8         1.4657    1.5634    6.2816 C.3       1 <0>         0.0425 
      11 C9         2.1658    0.2258    6.3076 C.2       1 <0>         0.5165 
      12 O3         1.6211   -0.7444    6.8316 O.2       1 <0>        -0.5075 
      13 N1         3.3727    0.0968    5.7637 N.am      1 <0>        -0.7277 
      14 C10        4.0545   -1.2053    5.7890 C.3       1 <0>         0.0923 
      15 C11        5.4142   -1.0808    5.1033 C.3       1 <0>         0.1538 
      16 N2         6.2932   -0.2238    5.9118 N.pl3     1 <0>        -0.9868 
      17 C12        7.7578   -0.2403    5.7876 C.3       1 <0>         0.0701 
      18 C13        8.1866    1.0402    6.5278 C.3       1 <0>        -0.1323 
      19 C14        7.2645    1.1711    7.7543 C.3       1 <0>        -0.5903 
      20 S1         5.6220    0.8837    7.0503 S.o2      1 <0>         2.5602 
      21 O4         5.1684    2.0461    6.3517 O.2       1 <0>        -0.9507 
      22 O5         4.7914    0.1870    7.9829 O.2       1 <0>        -0.9534 
      23 H1        -1.6860   -2.0889    0.8715 H         1 <0>         0.1028 
      24 H2        -0.5076   -1.9853   -0.4546 H         1 <0>         0.0577 
      25 H3         0.0136   -2.5219    1.1572 H         1 <0>         0.0578 
      26 H4        -2.2661   -1.3205    2.4997 H         1 <0>         0.1309 
      27 H5        -2.6055   -0.7957    4.8926 H         1 <0>         0.1300 
      28 H6        -0.9989    0.7042    6.0646 H         1 <0>         0.1298 
      29 H7         1.2735    1.1373    2.4870 H         1 <0>         0.1413 
      30 H8         0.5820    1.5218    6.9150 H         1 <0>         0.0972 
      31 H9         2.1409    2.3328    6.6500 H         1 <0>         0.0968 
      32 H10        3.8211    0.8928    5.3331 H         1 <0>         0.4034 
      33 H11        3.4502   -1.9421    5.2638 H         1 <0>         0.0764 
      34 H12        4.1969   -1.5209    6.8206 H         1 <0>         0.0833 
      35 H13        5.2846   -0.6388    4.1174 H         1 <0>         0.0878 
      36 H14        5.8624   -2.0671    5.0031 H         1 <0>         0.0899 
      37 H15        8.1300   -1.1298    6.2916 H         1 <0>         0.0810 
      38 H16        8.0972   -0.2398    4.7538 H         1 <0>         0.0967 
      39 H17        8.0233    1.8981    5.8791 H         1 <0>         0.1151 
      40 H18        9.2366    1.0103    6.8116 H         1 <0>         0.0972 
      41 H19        7.4724    0.3854    8.4778 H         1 <0>         0.1443 
      42 H20        7.3107    2.1432    8.2408 H         1 <0>         0.1447 
@<TRIPOS>BOND
       1        1        2 1        
       2        1       23 1        
       3        1       24 1        
       4        1       25 1        
       5        2        3 1        
       6        3        8 ar       
       7        3        4 ar       
       8        4        5 ar       
       9        4       26 1        
      10        5        6 ar       
      11        5       27 1        
      12        6        7 ar       
      13        6       28 1        
      14        7        8 ar       
      15        7        9 1        
      16        8       29 1        
      17        9       10 1        
      18       10       11 1        
      19       10       30 1        
      20       10       31 1        
      21       11       12 2        
      22       11       13 am       
      23       13       14 1        
      24       13       32 1        
      25       14       15 1        
      26       14       33 1        
      27       14       34 1        
      28       15       16 1        
      29       15       35 1        
      30       15       36 1        
      31       16       20 1        
      32       16       17 1        
      33       17       18 1        
      34       17       37 1        
      35       17       38 1        
      36       18       19 1        
      37       18       39 1        
      38       18       40 1        
      39       19       20 1        
      40       19       41 1        
      41       19       42 1        
      42       20       21 2        
      43       20       22 2        

