#        1GCZ_R01_S0001_C0000_L00014_S0001_C0042_G0010_E0001.mol2
#        Tue Jun  6 09:59:55 2017
#        Descriptor:     10    12    20    10     9    13
#        Energy - RMSD - RMSD MassCentre:     -58.2010    999.9999    999.9999
#        Receptor:       1  Surface Point:     1  Conformer:     0
#        Ligand:        14  Surface Point:     1  Conformer:    42
#        BUDE Formal Charge: 0
#        ATOM Count: 42
#        Heavy ATOM Count: 22
@<TRIPOS>MOLECULE
ZINC61597528_1GCZ_R01_S0001_C0000_L00014_S0001_C0042_G0010_E0001
 42 43 0 0 0
SMALL
USER_CHARGES
@<TRIPOS>ATOM
       1 C1        -0.3971   -0.1492   -0.4041 C.3       1 <0>         0.0268 
       2 O1        -0.5431    1.0246    0.3994 O.3       1 <0>        -0.3133 
       3 C2        -0.9110    0.8649    1.7094 C.ar      1 <0>         0.1677 
       4 C3        -1.8858   -0.0992    1.9921 C.ar      1 <0>        -0.2433 
       5 C4        -2.3201   -0.3399    3.2985 C.ar      1 <0>        -0.0391 
       6 C5        -1.7771    0.4028    4.3537 C.ar      1 <0>        -0.2473 
       7 C6        -0.8147    1.3825    4.0826 C.ar      1 <0>         0.1672 
       8 C7        -0.3740    1.6011    2.7720 C.ar      1 <0>        -0.1836 
       9 O2        -0.3012    2.1336    5.1070 O.3       1 <0>        -0.2863 
      10 C8        -0.0096    1.4738    6.3416 C.3       1 <0>         0.0425 
      11 C9         1.0240    0.3987    6.1049 C.2       1 <0>         0.5165 
      12 O3         0.7085   -0.7872    6.1854 O.2       1 <0>        -0.5075 
      13 N1         2.2765    0.7346    5.8092 N.am      1 <0>        -0.7277 
      14 C10        2.6536    2.1522    5.7131 C.3       1 <0>         0.0923 
      15 C11        4.1373    2.2611    5.3644 C.3       1 <0>         0.1538 
      16 N2         4.9422    1.7736    6.4937 N.pl3     1 <0>        -0.9868 
      17 C12        4.9717    2.4449    7.8010 C.3       1 <0>         0.0701 
      18 C13        6.1612    1.7739    8.5126 C.3       1 <0>        -0.1323 
      19 C14        6.1226    0.2833    8.1276 C.3       1 <0>        -0.5903 
      20 S1         5.8890    0.3412    6.3337 S.o2      1 <0>         2.5602 
      21 O4         5.0665   -0.7463    5.9024 O.2       1 <0>        -0.9507 
      22 O5         7.1169    0.6698    5.6783 O.2       1 <0>        -0.9534 
      23 H1        -1.3474   -0.6771   -0.4499 H         1 <0>         0.1028 
      24 H2        -0.0909    0.1355   -1.4085 H         1 <0>         0.0577 
      25 H3         0.3578   -0.7974    0.0358 H         1 <0>         0.0578 
      26 H4        -2.3108   -0.6673    1.1779 H         1 <0>         0.1309 
      27 H5        -3.0707   -1.0917    3.4928 H         1 <0>         0.1300 
      28 H6        -2.0958    0.2235    5.3699 H         1 <0>         0.1298 
      29 H7         0.3870    2.3565    2.6429 H         1 <0>         0.1413 
      30 H8        -0.9177    1.0223    6.7357 H         1 <0>         0.0972 
      31 H9         0.3770    2.1964    7.0573 H         1 <0>         0.0968 
      32 H10        2.9687    0.0164    5.6507 H         1 <0>         0.4034 
      33 H11        2.4689    2.6427    6.6664 H         1 <0>         0.0764 
      34 H12        2.0629    2.6333    4.9364 H         1 <0>         0.0833 
      35 H13        4.3879    3.3007    5.1633 H         1 <0>         0.0878 
      36 H14        4.3485    1.6594    4.4828 H         1 <0>         0.0899 
      37 H15        5.1593    3.5034    7.6335 H         1 <0>         0.0810 
      38 H16        4.0474    2.3242    8.3623 H         1 <0>         0.0967 
      39 H17        6.0251    1.8568    9.5889 H         1 <0>         0.1151 
      40 H18        7.1075    2.2379    8.2424 H         1 <0>         0.0972 
      41 H19        7.0782   -0.1930    8.3363 H         1 <0>         0.1443 
      42 H20        5.3194   -0.2757    8.6031 H         1 <0>         0.1447 
@<TRIPOS>BOND
       1        1        2 1        
       2        1       23 1        
       3        1       24 1        
       4        1       25 1        
       5        2        3 1        
       6        3        8 ar       
       7        3        4 ar       
       8        4        5 ar       
       9        4       26 1        
      10        5        6 ar       
      11        5       27 1        
      12        6        7 ar       
      13        6       28 1        
      14        7        8 ar       
      15        7        9 1        
      16        8       29 1        
      17        9       10 1        
      18       10       11 1        
      19       10       30 1        
      20       10       31 1        
      21       11       12 2        
      22       11       13 am       
      23       13       14 1        
      24       13       32 1        
      25       14       15 1        
      26       14       33 1        
      27       14       34 1        
      28       15       16 1        
      29       15       35 1        
      30       15       36 1        
      31       16       20 1        
      32       16       17 1        
      33       17       18 1        
      34       17       37 1        
      35       17       38 1        
      36       18       19 1        
      37       18       39 1        
      38       18       40 1        
      39       19       20 1        
      40       19       41 1        
      41       19       42 1        
      42       20       21 2        
      43       20       22 2        

