#        1GCZ_R01_S0001_C0000_L00014_S0001_C0042_G0010_E0001.mol2
#        Tue Jun  6 14:16:00 2017
#        Descriptor:      2     8     6     7    10    15
#        Energy - RMSD - RMSD MassCentre:     -46.1950    999.9999    999.9999
#        Receptor:       1  Surface Point:     1  Conformer:     0
#        Ligand:        14  Surface Point:     1  Conformer:    42
#        BUDE Formal Charge: 0
#        ATOM Count: 42
#        Heavy ATOM Count: 22
@<TRIPOS>MOLECULE
ZINC61597528_1GCZ_R01_S0001_C0000_L00014_S0001_C0042_G0010_E0001
 42 43 0 0 0
SMALL
USER_CHARGES
@<TRIPOS>ATOM
       1 C1        -1.8198    1.4797    1.0562 C.3       1 <0>         0.0268 
       2 O1        -1.9713    0.4762    2.0636 O.3       1 <0>        -0.3133 
       3 C2        -0.9422    0.2943    2.9494 C.ar      1 <0>         0.1677 
       4 C3         0.3615    0.3480    2.4424 C.ar      1 <0>        -0.2433 
       5 C4         1.4760    0.1821    3.2692 C.ar      1 <0>        -0.0391 
       6 C5         1.2912   -0.0515    4.6372 C.ar      1 <0>        -0.2473 
       7 C6        -0.0077   -0.1255    5.1539 C.ar      1 <0>         0.1672 
       8 C7        -1.1156    0.0613    4.3187 C.ar      1 <0>        -0.1836 
       9 O2        -0.1963   -0.3837    6.4862 O.3       1 <0>        -0.2863 
      10 C8         0.6795    0.2497    7.4225 C.3       1 <0>         0.0425 
      11 C9         0.5425    1.7487    7.3040 C.2       1 <0>         0.5165 
      12 O3         1.4632    2.4160    6.8353 O.2       1 <0>        -0.5075 
      13 N1        -0.5745    2.3480    7.7068 N.am      1 <0>        -0.7277 
      14 C10       -1.6749    1.5503    8.2672 C.3       1 <0>         0.0923 
      15 C11       -2.8303    2.4749    8.6479 C.3       1 <0>         0.1538 
      16 N2        -2.4237    3.3273    9.7743 N.pl3     1 <0>        -0.9868 
      17 C12       -2.1176    2.7934   11.1093 C.3       1 <0>         0.0701 
      18 C13       -2.0665    4.0566   11.9886 C.3       1 <0>        -0.1323 
      19 C14       -1.3919    5.1546   11.1456 C.3       1 <0>        -0.5903 
      20 S1        -2.2597    5.0308    9.5621 S.o2      1 <0>         2.5602 
      21 O4        -1.3661    5.3078    8.4805 O.2       1 <0>        -0.9507 
      22 O5        -3.5533    5.6341    9.6505 O.2       1 <0>        -0.9534 
      23 H1        -0.9617    1.2393    0.4320 H         1 <0>         0.1028 
      24 H2        -2.7173    1.5147    0.4423 H         1 <0>         0.0577 
      25 H3        -1.6653    2.4471    1.5293 H         1 <0>         0.0578 
      26 H4         0.5050    0.5205    1.3859 H         1 <0>         0.1309 
      27 H5         2.4726    0.2314    2.8561 H         1 <0>         0.1300 
      28 H6         2.1418   -0.1736    5.2913 H         1 <0>         0.1298 
      29 H7        -2.0851    0.0136    4.7922 H         1 <0>         0.1413 
      30 H8         1.7072   -0.0379    7.2107 H         1 <0>         0.0972 
      31 H9         0.4165   -0.0592    8.4321 H         1 <0>         0.0968 
      32 H10       -0.6672    3.3506    7.6280 H         1 <0>         0.4034 
      33 H11       -1.3267    1.0225    9.1525 H         1 <0>         0.0764 
      34 H12       -2.0161    0.8309    7.5258 H         1 <0>         0.0833 
      35 H13       -3.6925    1.8781    8.9384 H         1 <0>         0.0878 
      36 H14       -3.0912    3.1000    7.7965 H         1 <0>         0.0899 
      37 H15       -2.9342    2.1390   11.4072 H         1 <0>         0.0810 
      38 H16       -1.1800    2.2423   11.1424 H         1 <0>         0.0967 
      39 H17       -1.4457    3.8589   12.8600 H         1 <0>         0.1151 
      40 H18       -3.0573    4.3550   12.3248 H         1 <0>         0.0972 
      41 H19       -1.5846    6.1381   11.5692 H         1 <0>         0.1443 
      42 H20       -0.3215    5.0138   11.0106 H         1 <0>         0.1447 
@<TRIPOS>BOND
       1        1        2 1        
       2        1       23 1        
       3        1       24 1        
       4        1       25 1        
       5        2        3 1        
       6        3        8 ar       
       7        3        4 ar       
       8        4        5 ar       
       9        4       26 1        
      10        5        6 ar       
      11        5       27 1        
      12        6        7 ar       
      13        6       28 1        
      14        7        8 ar       
      15        7        9 1        
      16        8       29 1        
      17        9       10 1        
      18       10       11 1        
      19       10       30 1        
      20       10       31 1        
      21       11       12 2        
      22       11       13 am       
      23       13       14 1        
      24       13       32 1        
      25       14       15 1        
      26       14       33 1        
      27       14       34 1        
      28       15       16 1        
      29       15       35 1        
      30       15       36 1        
      31       16       20 1        
      32       16       17 1        
      33       17       18 1        
      34       17       37 1        
      35       17       38 1        
      36       18       19 1        
      37       18       39 1        
      38       18       40 1        
      39       19       20 1        
      40       19       41 1        
      41       19       42 1        
      42       20       21 2        
      43       20       22 2        

