#        1GCZ_R01_S0001_C0000_L00014_S0001_C0043_G0010_E0001.mol2
#        Tue Jun  6 09:59:56 2017
#        Descriptor:     34    10     1     7     6    14
#        Energy - RMSD - RMSD MassCentre:     -52.3824    999.9999    999.9999
#        Receptor:       1  Surface Point:     1  Conformer:     0
#        Ligand:        14  Surface Point:     1  Conformer:    43
#        BUDE Formal Charge: 0
#        ATOM Count: 42
#        Heavy ATOM Count: 22
@<TRIPOS>MOLECULE
ZINC61597528_1GCZ_R01_S0001_C0000_L00014_S0001_C0043_G0010_E0001
 42 43 0 0 0
SMALL
USER_CHARGES
@<TRIPOS>ATOM
       1 C1        -0.5254   -0.7799   -0.3881 C.3       1 <0>         0.0268 
       2 O1        -0.6601   -1.3703    0.9074 O.3       1 <0>        -0.3133 
       3 C2        -0.5944   -0.5456    1.9993 C.ar      1 <0>         0.1677 
       4 C3         0.3594    0.4787    1.9769 C.ar      1 <0>        -0.2433 
       5 C4         0.4966    1.3749    3.0407 C.ar      1 <0>        -0.0391 
       6 C5        -0.3315    1.2458    4.1622 C.ar      1 <0>        -0.2473 
       7 C6        -1.2771    0.2145    4.2052 C.ar      1 <0>         0.1672 
       8 C7        -1.4179   -0.6649    3.1251 C.ar      1 <0>        -0.1836 
       9 O2        -2.0700    0.0643    5.3123 O.3       1 <0>        -0.2863 
      10 C8        -1.4694    0.2464    6.5972 C.3       1 <0>         0.0425 
      11 C9        -0.3637   -0.7651    6.7829 C.2       1 <0>         0.5165 
      12 O3         0.8102   -0.3986    6.7969 O.2       1 <0>        -0.5075 
      13 N1        -0.6596   -2.0532    6.9315 N.am      1 <0>        -0.7277 
      14 C10       -2.0628   -2.4913    6.9146 C.3       1 <0>         0.0923 
      15 C11       -2.1247   -4.0062    7.1040 C.3       1 <0>         0.1538 
      16 N2        -1.6808   -4.3478    8.4631 N.pl3     1 <0>        -0.9868 
      17 C12       -2.6157   -4.5764    9.5741 C.3       1 <0>         0.0701 
      18 C13       -1.6974   -4.5775   10.8103 C.3       1 <0>        -0.1323 
      19 C14       -0.4017   -5.3001   10.3973 C.3       1 <0>        -0.5903 
      20 S1        -0.0011   -4.5247    8.8117 S.o2      1 <0>         2.5602 
      21 O4         0.5874   -5.4791    7.9242 O.2       1 <0>        -0.9507 
      22 O5         0.5671   -3.2284    9.0166 O.2       1 <0>        -0.9534 
      23 H1         0.4472   -0.2989   -0.4674 H         1 <0>         0.1028 
      24 H2        -0.6117   -1.5529   -1.1488 H         1 <0>         0.0577 
      25 H3        -1.3098   -0.0397   -0.5318 H         1 <0>         0.0578 
      26 H4         1.0037    0.5744    1.1155 H         1 <0>         0.1309 
      27 H5         1.2371    2.1597    2.9993 H         1 <0>         0.1300 
      28 H6        -0.2440    1.9349    4.9892 H         1 <0>         0.1298 
      29 H7        -2.1839   -1.4203    3.2199 H         1 <0>         0.1413 
      30 H8        -2.2204    0.1083    7.3722 H         1 <0>         0.0972 
      31 H9        -1.0566    1.2507    6.6661 H         1 <0>         0.0968 
      32 H10        0.0791   -2.7307    7.0556 H         1 <0>         0.4034 
      33 H11       -2.5145   -2.2270    5.9608 H         1 <0>         0.0764 
      34 H12       -2.6054   -2.0031    7.7214 H         1 <0>         0.0833 
      35 H13       -1.4740   -4.4900    6.3783 H         1 <0>         0.0878 
      36 H14       -3.1472   -4.3489    6.9605 H         1 <0>         0.0899 
      37 H15       -3.3153   -3.7437    9.6041 H         1 <0>         0.0810 
      38 H16       -3.1664   -5.5103    9.4816 H         1 <0>         0.0967 
      39 H17       -2.1725   -5.1471   11.6063 H         1 <0>         0.1151 
      40 H18       -1.5023   -3.5692   11.1694 H         1 <0>         0.0972 
      41 H19        0.4003   -5.0838   11.1000 H         1 <0>         0.1443 
      42 H20       -0.5125   -6.3764   10.2830 H         1 <0>         0.1447 
@<TRIPOS>BOND
       1        1        2 1        
       2        1       23 1        
       3        1       24 1        
       4        1       25 1        
       5        2        3 1        
       6        3        8 ar       
       7        3        4 ar       
       8        4        5 ar       
       9        4       26 1        
      10        5        6 ar       
      11        5       27 1        
      12        6        7 ar       
      13        6       28 1        
      14        7        8 ar       
      15        7        9 1        
      16        8       29 1        
      17        9       10 1        
      18       10       11 1        
      19       10       30 1        
      20       10       31 1        
      21       11       12 2        
      22       11       13 am       
      23       13       14 1        
      24       13       32 1        
      25       14       15 1        
      26       14       33 1        
      27       14       34 1        
      28       15       16 1        
      29       15       35 1        
      30       15       36 1        
      31       16       20 1        
      32       16       17 1        
      33       17       18 1        
      34       17       37 1        
      35       17       38 1        
      36       18       19 1        
      37       18       39 1        
      38       18       40 1        
      39       19       20 1        
      40       19       41 1        
      41       19       42 1        
      42       20       21 2        
      43       20       22 2        

