#        1GCZ_R01_S0001_C0000_L00014_S0001_C0043_G0010_E0001.mol2
#        Tue Jun  6 14:16:02 2017
#        Descriptor:      9     8     5     8    10    14
#        Energy - RMSD - RMSD MassCentre:     -51.9424    999.9999    999.9999
#        Receptor:       1  Surface Point:     1  Conformer:     0
#        Ligand:        14  Surface Point:     1  Conformer:    43
#        BUDE Formal Charge: 0
#        ATOM Count: 42
#        Heavy ATOM Count: 22
@<TRIPOS>MOLECULE
ZINC61597528_1GCZ_R01_S0001_C0000_L00014_S0001_C0043_G0010_E0001
 42 43 0 0 0
SMALL
USER_CHARGES
@<TRIPOS>ATOM
       1 C1        -0.6755   -0.0443   -0.1552 C.3       1 <0>         0.0268 
       2 O1        -0.3367    0.6468    1.0500 O.3       1 <0>        -0.3133 
       3 C2        -0.8564    0.1778    2.2276 C.ar      1 <0>         0.1677 
       4 C3        -2.1877   -0.2547    2.2175 C.ar      1 <0>        -0.2433 
       5 C4        -2.8032   -0.7566    3.3676 C.ar      1 <0>        -0.0391 
       6 C5        -2.0790   -0.8240    4.5638 C.ar      1 <0>        -0.2473 
       7 C6        -0.7525   -0.3777    4.5920 C.ar      1 <0>         0.1672 
       8 C7        -0.1412    0.1051    3.4288 C.ar      1 <0>        -0.1836 
       9 O2        -0.0476   -0.4129    5.7662 O.3       1 <0>        -0.2863 
      10 C8        -0.7269   -0.0392    6.9678 C.3       1 <0>         0.0425 
      11 C9        -1.2011    1.3898    6.8532 C.2       1 <0>         0.5165 
      12 O3        -2.4025    1.6341    6.7552 O.2       1 <0>        -0.5075 
      13 N1        -0.3188    2.3851    6.8581 N.am      1 <0>        -0.7277 
      14 C10        1.1172    2.0932    6.9750 C.3       1 <0>         0.0923 
      15 C11        1.9053    3.4021    6.9554 C.3       1 <0>         0.1538 
      16 N2         1.6156    4.1659    8.1775 N.pl3     1 <0>        -0.9868 
      17 C12        2.4822    4.1313    9.3643 C.3       1 <0>         0.0701 
      18 C13        1.6192    4.8039   10.4481 C.3       1 <0>        -0.1323 
      19 C14        0.8695    5.9603    9.7610 C.3       1 <0>        -0.5903 
      20 S1         0.2238    5.1807    8.2606 S.o2      1 <0>         2.5602 
      21 O4         0.2278    6.1105    7.1740 O.2       1 <0>        -0.9507 
      22 O5        -0.9179    4.3752    8.5653 O.2       1 <0>        -0.9534 
      23 H1        -1.7532   -0.0118   -0.3003 H         1 <0>         0.1028 
      24 H2        -0.1807    0.4338   -0.9979 H         1 <0>         0.0577 
      25 H3        -0.3497   -1.0798   -0.0824 H         1 <0>         0.0578 
      26 H4        -2.7494   -0.1961    1.2970 H         1 <0>         0.1309 
      27 H5        -3.8305   -1.0880    3.3347 H         1 <0>         0.1300 
      28 H6        -2.5371   -1.2167    5.4595 H         1 <0>         0.1298 
      29 H7         0.8909    0.4093    3.5216 H         1 <0>         0.1413 
      30 H8        -0.0470   -0.1284    7.8124 H         1 <0>         0.0972 
      31 H9        -1.5829   -0.6935    7.1196 H         1 <0>         0.0968 
      32 H10       -0.6348    3.3414    6.7814 H         1 <0>         0.4034 
      33 H11        1.4303    1.4696    6.1402 H         1 <0>         0.0764 
      34 H12        1.3066    1.5705    7.9102 H         1 <0>         0.0833 
      35 H13        1.6155    3.9876    6.0853 H         1 <0>         0.0878 
      36 H14        2.9702    3.1844    6.9086 H         1 <0>         0.0899 
      37 H15        2.6798    3.0897    9.6087 H         1 <0>         0.0810 
      38 H16        3.4246    4.6552    9.2184 H         1 <0>         0.0967 
      39 H17        2.2702    5.2203   11.2139 H         1 <0>         0.1151 
      40 H18        0.9353    4.0984   10.9152 H         1 <0>         0.0972 
      41 H19        0.0289    6.2889   10.3686 H         1 <0>         0.1443 
      42 H20        1.5006    6.8110    9.5124 H         1 <0>         0.1447 
@<TRIPOS>BOND
       1        1        2 1        
       2        1       23 1        
       3        1       24 1        
       4        1       25 1        
       5        2        3 1        
       6        3        8 ar       
       7        3        4 ar       
       8        4        5 ar       
       9        4       26 1        
      10        5        6 ar       
      11        5       27 1        
      12        6        7 ar       
      13        6       28 1        
      14        7        8 ar       
      15        7        9 1        
      16        8       29 1        
      17        9       10 1        
      18       10       11 1        
      19       10       30 1        
      20       10       31 1        
      21       11       12 2        
      22       11       13 am       
      23       13       14 1        
      24       13       32 1        
      25       14       15 1        
      26       14       33 1        
      27       14       34 1        
      28       15       16 1        
      29       15       35 1        
      30       15       36 1        
      31       16       20 1        
      32       16       17 1        
      33       17       18 1        
      34       17       37 1        
      35       17       38 1        
      36       18       19 1        
      37       18       39 1        
      38       18       40 1        
      39       19       20 1        
      40       19       41 1        
      41       19       42 1        
      42       20       21 2        
      43       20       22 2        

