#        1GCZ_R01_S0001_C0000_L00014_S0001_C0044_G0010_E0001.mol2
#        Tue Jun  6 14:16:03 2017
#        Descriptor:     23    31     4     8     8    15
#        Energy - RMSD - RMSD MassCentre:     -49.2205    999.9999    999.9999
#        Receptor:       1  Surface Point:     1  Conformer:     0
#        Ligand:        14  Surface Point:     1  Conformer:    44
#        BUDE Formal Charge: 0
#        ATOM Count: 42
#        Heavy ATOM Count: 22
@<TRIPOS>MOLECULE
ZINC61597528_1GCZ_R01_S0001_C0000_L00014_S0001_C0044_G0010_E0001
 42 43 0 0 0
SMALL
USER_CHARGES
@<TRIPOS>ATOM
       1 C1         0.5066   -0.0583    0.8792 C.3       1 <0>         0.0268 
       2 O1         0.2366   -0.8375    2.0474 O.3       1 <0>        -0.3133 
       3 C2        -0.0700   -0.1736    3.2058 C.ar      1 <0>         0.1677 
       4 C3         0.6576    0.9868    3.4955 C.ar      1 <0>        -0.2433 
       5 C4         0.4119    1.7360    4.6495 C.ar      1 <0>        -0.0391 
       6 C5        -0.5791    1.3175    5.5454 C.ar      1 <0>        -0.2473 
       7 C6        -1.3016    0.1490    5.2768 C.ar      1 <0>         0.1672 
       8 C7        -1.0592   -0.5825    4.1079 C.ar      1 <0>        -0.1836 
       9 O2        -2.2519   -0.2826    6.1643 O.3       1 <0>        -0.2863 
      10 C8        -2.3390   -1.6860    6.4241 C.3       1 <0>         0.0425 
      11 C9        -1.0316   -2.1718    7.0030 C.2       1 <0>         0.5165 
      12 O3        -0.2983   -2.9031    6.3395 O.2       1 <0>        -0.5075 
      13 N1        -0.6731   -1.8089    8.2313 N.am      1 <0>        -0.7277 
      14 C10       -1.5496   -0.9351    9.0243 C.3       1 <0>         0.0923 
      15 C11       -0.9086   -0.6729   10.3863 C.3       1 <0>         0.1538 
      16 N2         0.3045    0.1379   10.2081 N.pl3     1 <0>        -0.9868 
      17 C12        0.2917    1.4641    9.5742 C.3       1 <0>         0.0701 
      18 C13        1.6670    2.0457    9.9509 C.3       1 <0>        -0.1323 
      19 C14        2.6743    0.8833    9.8731 C.3       1 <0>        -0.5903 
      20 S1         1.8277   -0.4383   10.7744 S.o2      1 <0>         2.5602 
      21 O4         1.9115   -0.2137   12.1842 O.2       1 <0>        -0.9507 
      22 O5         2.1200   -1.7107   10.1905 O.2       1 <0>        -0.9534 
      23 H1         1.3666    0.5825    1.0622 H         1 <0>         0.1028 
      24 H2         0.7189   -0.7211    0.0430 H         1 <0>         0.0577 
      25 H3        -0.3606    0.5556    0.6450 H         1 <0>         0.0578 
      26 H4         1.4275    1.3062    2.8087 H         1 <0>         0.1309 
      27 H5         0.9835    2.6301    4.8501 H         1 <0>         0.1300 
      28 H6        -0.7872    1.8895    6.4376 H         1 <0>         0.1298 
      29 H7        -1.6713   -1.4593    3.9567 H         1 <0>         0.1413 
      30 H8        -2.5428   -2.2155    5.4957 H         1 <0>         0.0972 
      31 H9        -3.1416   -1.8750    7.1339 H         1 <0>         0.0968 
      32 H10        0.2010   -2.1333    8.6194 H         1 <0>         0.4034 
      33 H11       -2.5139   -1.4189    9.1650 H         1 <0>         0.0764 
      34 H12       -1.6896    0.0093    8.5023 H         1 <0>         0.0833 
      35 H13       -0.6457   -1.6203   10.8524 H         1 <0>         0.0878 
      36 H14       -1.6115   -0.1381   11.0217 H         1 <0>         0.0899 
      37 H15        0.2046    1.3242    8.4988 H         1 <0>         0.0810 
      38 H16       -0.5217    2.0958    9.9253 H         1 <0>         0.0967 
      39 H17        1.6326    2.4056   10.9769 H         1 <0>         0.1151 
      40 H18        1.9489    2.8704    9.2995 H         1 <0>         0.0972 
      41 H19        2.8144    0.5637    8.8425 H         1 <0>         0.1443 
      42 H20        3.6388    1.1027   10.3264 H         1 <0>         0.1447 
@<TRIPOS>BOND
       1        1        2 1        
       2        1       23 1        
       3        1       24 1        
       4        1       25 1        
       5        2        3 1        
       6        3        8 ar       
       7        3        4 ar       
       8        4        5 ar       
       9        4       26 1        
      10        5        6 ar       
      11        5       27 1        
      12        6        7 ar       
      13        6       28 1        
      14        7        8 ar       
      15        7        9 1        
      16        8       29 1        
      17        9       10 1        
      18       10       11 1        
      19       10       30 1        
      20       10       31 1        
      21       11       12 2        
      22       11       13 am       
      23       13       14 1        
      24       13       32 1        
      25       14       15 1        
      26       14       33 1        
      27       14       34 1        
      28       15       16 1        
      29       15       35 1        
      30       15       36 1        
      31       16       20 1        
      32       16       17 1        
      33       17       18 1        
      34       17       37 1        
      35       17       38 1        
      36       18       19 1        
      37       18       39 1        
      38       18       40 1        
      39       19       20 1        
      40       19       41 1        
      41       19       42 1        
      42       20       21 2        
      43       20       22 2        

