#        1GCZ_R01_S0001_C0000_L00003_S0001_C0027_G0010_E0001.mol2
#        Tue Jun  6 14:04:20 2017
#        Descriptor:      6    14     4     9    10    12
#        Energy - RMSD - RMSD MassCentre:     -74.7804    999.9999    999.9999
#        Receptor:       1  Surface Point:     1  Conformer:     0
#        Ligand:         3  Surface Point:     1  Conformer:    27
#        BUDE Formal Charge: 0
#        ATOM Count: 58
#        Heavy ATOM Count: 30
@<TRIPOS>MOLECULE
ZINC61580633_1GCZ_R01_S0001_C0000_L00003_S0001_C0027_G0010_E0001
 58 59 0 0 0
SMALL
USER_CHARGES
@<TRIPOS>ATOM
       1 C1        -0.5380    2.7359   -4.6418 C.3       1 <0>        -0.1532 
       2 C2        -0.4765    1.2481   -4.3079 C.3       1 <0>        -0.1224 
       3 C3         0.9343    0.8892   -3.8436 C.3       1 <0>        -0.1198 
       4 C4         0.9957   -0.6006   -3.5091 C.3       1 <0>         0.0610 
       5 O1         0.1123   -0.8806   -2.4201 O.3       1 <0>        -0.3878 
       6 C5         0.4714   -0.1566   -1.2404 C.3       1 <0>         0.0487 
       7 C6        -0.5066   -0.4975   -0.1171 C.3       1 <0>         0.1244 
       8 N1        -0.1374    0.2467    1.0955 N.am      1 <0>        -0.7216 
       9 C7        -0.8547    0.1048    2.2066 C.2       1 <0>         0.5161 
      10 O2        -1.8265   -0.6488    2.2201 O.2       1 <0>        -0.5151 
      11 C8        -0.4754    0.8693    3.4523 C.3       1 <0>         0.0490 
      12 O3         0.7486    0.3479    3.9765 O.3       1 <0>        -0.3194 
      13 C9         1.2481    0.9105    5.0973 C.2       1 <0>         0.5417 
      14 O4         0.6581    1.8349    5.6319 O.2       1 <0>        -0.5337 
      15 C10        2.5122    0.4057    5.6781 C.2       1 <0>        -0.2559 
      16 C11        3.2997   -0.7162    5.1198 C.2       1 <0>        -0.0791 
      17 C12        4.3911   -0.9804    5.8417 C.2       1 <0>        -0.2585 
      18 S1         4.5629    0.0941    7.2375 S.3       1 <0>         0.3028 
      19 C13        3.0626    0.9179    6.7872 C.2       1 <0>         0.0893 
      20 N2         2.4904    1.9571    7.4726 N.am      1 <0>        -0.6099 
      21 C14        3.0734    2.4326    8.5693 C.2       1 <0>         0.5551 
      22 O5         4.1271    1.9394    8.9684 O.2       1 <0>        -0.4939 
      23 C15        2.4540    3.5552    9.3085 C.ar      1 <0>        -0.1466 
      24 C16        3.1000    4.0225   10.4594 C.ar      1 <0>        -0.0772 
      25 C17        2.5258    5.0317   11.2414 C.ar      1 <0>        -0.1241 
      26 C18        1.2887    5.5858   10.8923 C.ar      1 <0>        -0.0446 
      27 C19        0.6662    5.1581    9.7135 C.ar      1 <0>        -0.1261 
      28 C20        1.2579    4.1693    8.9185 C.ar      1 <0>        -0.0460 
      29 C21        0.6568    6.6291   11.7825 C.3       1 <0>        -0.0928 
      30 C22       -0.2331    5.9438   12.8154 C.3       1 <0>        -0.1485 
      31 H1         0.1636    2.9562   -5.4437 H         1 <0>         0.0567 
      32 H2        -0.2752    3.3160   -3.7598 H         1 <0>         0.0554 
      33 H3        -1.5459    2.9943   -4.9596 H         1 <0>         0.0557 
      34 H4        -1.1867    1.0243   -3.5146 H         1 <0>         0.0632 
      35 H5        -0.7254    0.6665   -5.1930 H         1 <0>         0.0635 
      36 H6         1.6453    1.1118   -4.6362 H         1 <0>         0.0711 
      37 H7         1.1839    1.4697   -2.9578 H         1 <0>         0.0704 
      38 H8         0.6940   -1.1808   -4.3785 H         1 <0>         0.0498 
      39 H9         2.0123   -0.8682   -3.2286 H         1 <0>         0.0505 
      40 H10        0.4315    0.9116   -1.4434 H         1 <0>         0.0584 
      41 H11        1.4798   -0.4316   -0.9382 H         1 <0>         0.0702 
      42 H12       -0.4670   -1.5653    0.0874 H         1 <0>         0.0872 
      43 H13       -1.5153   -0.2222   -0.4177 H         1 <0>         0.0805 
      44 H14        0.6604    0.8659    1.0856 H         1 <0>         0.4058 
      45 H15       -0.3452    1.9214    3.2075 H         1 <0>         0.1008 
      46 H16       -1.2619    0.7641    4.1966 H         1 <0>         0.0999 
      47 H17        3.0110   -1.2403    4.2207 H         1 <0>         0.1557 
      48 H18        5.0908   -1.7605    5.5806 H         1 <0>         0.1929 
      49 H19        1.6252    2.3621    7.1449 H         1 <0>         0.4317 
      50 H20        4.0492    3.5984   10.7516 H         1 <0>         0.1287 
      51 H21        3.0364    5.3885   12.1237 H         1 <0>         0.1326 
      52 H22       -0.2739    5.6043    9.4245 H         1 <0>         0.1342 
      53 H23        0.7619    3.9223    7.9915 H         1 <0>         0.1410 
      54 H24        0.0567    7.3057   11.1776 H         1 <0>         0.0777 
      55 H25        1.4369    7.1917   12.2911 H         1 <0>         0.0771 
      56 H26        0.3703    5.2770   13.4277 H         1 <0>         0.0623 
      57 H27       -1.0042    5.3701   12.3053 H         1 <0>         0.0572 
      58 H28       -0.6988    6.6963   13.4482 H         1 <0>         0.0578 
@<TRIPOS>BOND
       1        1        2 1        
       2        1       31 1        
       3        1       32 1        
       4        1       33 1        
       5        2        3 1        
       6        2       34 1        
       7        2       35 1        
       8        3        4 1        
       9        3       36 1        
      10        3       37 1        
      11        4        5 1        
      12        4       38 1        
      13        4       39 1        
      14        5        6 1        
      15        6        7 1        
      16        6       40 1        
      17        6       41 1        
      18        7        8 1        
      19        7       42 1        
      20        7       43 1        
      21        8        9 am       
      22        8       44 1        
      23        9       10 2        
      24        9       11 1        
      25       11       12 1        
      26       11       45 1        
      27       11       46 1        
      28       12       13 1        
      29       13       14 2        
      30       13       15 1        
      31       15       19 2        
      32       15       16 1        
      33       16       17 2        
      34       16       47 1        
      35       17       18 1        
      36       17       48 1        
      37       18       19 1        
      38       19       20 1        
      39       20       21 am       
      40       20       49 1        
      41       21       22 2        
      42       21       23 1        
      43       23       28 ar       
      44       23       24 ar       
      45       24       25 ar       
      46       24       50 1        
      47       25       26 ar       
      48       25       51 1        
      49       26       27 ar       
      50       26       29 1        
      51       27       28 ar       
      52       27       52 1        
      53       28       53 1        
      54       29       30 1        
      55       29       54 1        
      56       29       55 1        
      57       30       56 1        
      58       30       57 1        
      59       30       58 1        

