#        1GCZ_R01_S0001_C0000_L00014_S0001_C0045_G0010_E0001.mol2
#        Tue Jun  6 09:59:57 2017
#        Descriptor:     19     1     5    11     8    13
#        Energy - RMSD - RMSD MassCentre:     -51.2062    999.9999    999.9999
#        Receptor:       1  Surface Point:     1  Conformer:     0
#        Ligand:        14  Surface Point:     1  Conformer:    45
#        BUDE Formal Charge: 0
#        ATOM Count: 42
#        Heavy ATOM Count: 22
@<TRIPOS>MOLECULE
ZINC61597528_1GCZ_R01_S0001_C0000_L00014_S0001_C0045_G0010_E0001
 42 43 0 0 0
SMALL
USER_CHARGES
@<TRIPOS>ATOM
       1 C1        -0.4041   -1.7468    0.1157 C.3       1 <0>         0.0268 
       2 O1        -0.2695   -0.4016    0.5817 O.3       1 <0>        -0.3133 
       3 C2        -0.3840   -0.1734    1.9276 C.ar      1 <0>         0.1677 
       4 C3        -1.3746   -0.8805    2.6192 C.ar      1 <0>        -0.2433 
       5 C4        -1.5627   -0.7208    3.9949 C.ar      1 <0>        -0.0391 
       6 C5        -0.7494    0.1718    4.7032 C.ar      1 <0>        -0.2473 
       7 C6         0.2330    0.8987    4.0204 C.ar      1 <0>         0.1672 
       8 C7         0.4244    0.7158    2.6458 C.ar      1 <0>        -0.1836 
       9 O2         1.0123    1.7960    4.7020 O.3       1 <0>        -0.2863 
      10 C8         2.4037    1.8579    4.3780 C.3       1 <0>         0.0425 
      11 C9         3.0431    0.5173    4.6504 C.2       1 <0>         0.5165 
      12 O3         3.4241   -0.1847    3.7152 O.2       1 <0>        -0.5075 
      13 N1         3.1942    0.0952    5.9026 N.am      1 <0>        -0.7277 
      14 C10        3.8166   -1.2099    6.1678 C.3       1 <0>         0.0923 
      15 C11        5.3034   -1.1438    5.8216 C.3       1 <0>         0.1538 
      16 N2         5.9859   -0.2464    6.7649 N.pl3     1 <0>        -0.9868 
      17 C12        6.5233    1.0643    6.3725 C.3       1 <0>         0.0701 
      18 C13        7.3955    1.4605    7.5783 C.3       1 <0>        -0.1323 
      19 C14        6.6419    0.9987    8.8393 C.3       1 <0>        -0.5903 
      20 S1         6.1649   -0.6962    8.4200 S.o2      1 <0>         2.5602 
      21 O4         4.8891   -1.0096    8.9851 O.2       1 <0>        -0.9507 
      22 O5         7.2850   -1.5770    8.5409 O.2       1 <0>        -0.9534 
      23 H1        -1.3925   -2.1218    0.3730 H         1 <0>         0.1028 
      24 H2        -0.2766   -1.7701   -0.9646 H         1 <0>         0.0577 
      25 H3         0.3543   -2.3699    0.5845 H         1 <0>         0.0578 
      26 H4        -2.0075   -1.5637    2.0724 H         1 <0>         0.1309 
      27 H5        -2.3311   -1.2801    4.5079 H         1 <0>         0.1300 
      28 H6        -0.8761    0.3009    5.7680 H         1 <0>         0.1298 
      29 H7         1.2162    1.2932    2.1919 H         1 <0>         0.1413 
      30 H8         2.8853    2.6193    4.9879 H         1 <0>         0.0972 
      31 H9         2.5208    2.1076    3.3255 H         1 <0>         0.0968 
      32 H10        2.8818    0.6709    6.6714 H         1 <0>         0.4034 
      33 H11        3.3364   -1.9720    5.5578 H         1 <0>         0.0764 
      34 H12        3.7008   -1.4605    7.2202 H         1 <0>         0.0833 
      35 H13        5.4241   -0.7642    4.8090 H         1 <0>         0.0878 
      36 H14        5.7371   -2.1392    5.8905 H         1 <0>         0.0899 
      37 H15        7.1270    0.9282    5.4777 H         1 <0>         0.0810 
      38 H16        5.7471    1.8017    6.1783 H         1 <0>         0.0967 
      39 H17        7.4897    2.5440    7.6089 H         1 <0>         0.1151 
      40 H18        8.3903    1.0240    7.5180 H         1 <0>         0.0972 
      41 H19        7.3103    0.9671    9.6972 H         1 <0>         0.1443 
      42 H20        5.7655    1.5985    9.0755 H         1 <0>         0.1447 
@<TRIPOS>BOND
       1        1        2 1        
       2        1       23 1        
       3        1       24 1        
       4        1       25 1        
       5        2        3 1        
       6        3        8 ar       
       7        3        4 ar       
       8        4        5 ar       
       9        4       26 1        
      10        5        6 ar       
      11        5       27 1        
      12        6        7 ar       
      13        6       28 1        
      14        7        8 ar       
      15        7        9 1        
      16        8       29 1        
      17        9       10 1        
      18       10       11 1        
      19       10       30 1        
      20       10       31 1        
      21       11       12 2        
      22       11       13 am       
      23       13       14 1        
      24       13       32 1        
      25       14       15 1        
      26       14       33 1        
      27       14       34 1        
      28       15       16 1        
      29       15       35 1        
      30       15       36 1        
      31       16       20 1        
      32       16       17 1        
      33       17       18 1        
      34       17       37 1        
      35       17       38 1        
      36       18       19 1        
      37       18       39 1        
      38       18       40 1        
      39       19       20 1        
      40       19       41 1        
      41       19       42 1        
      42       20       21 2        
      43       20       22 2        

