#        1GCZ_R01_S0001_C0000_L00014_S0001_C0045_G0010_E0001.mol2
#        Tue Jun  6 14:16:05 2017
#        Descriptor:     17     2     4    10     8    14
#        Energy - RMSD - RMSD MassCentre:     -50.1265    999.9999    999.9999
#        Receptor:       1  Surface Point:     1  Conformer:     0
#        Ligand:        14  Surface Point:     1  Conformer:    45
#        BUDE Formal Charge: 0
#        ATOM Count: 42
#        Heavy ATOM Count: 22
@<TRIPOS>MOLECULE
ZINC61597528_1GCZ_R01_S0001_C0000_L00014_S0001_C0045_G0010_E0001
 42 43 0 0 0
SMALL
USER_CHARGES
@<TRIPOS>ATOM
       1 C1         0.0822   -1.6619    0.3382 C.3       1 <0>         0.0268 
       2 O1         0.4170   -0.3285    0.7313 O.3       1 <0>        -0.3133 
       3 C2        -0.0731    0.1317    1.9250 C.ar      1 <0>         0.1677 
       4 C3        -1.3914   -0.2056    2.2534 C.ar      1 <0>        -0.2433 
       5 C4        -1.9766    0.2107    3.4524 C.ar      1 <0>        -0.0391 
       6 C5        -1.2348    0.9906    4.3476 C.ar      1 <0>        -0.2473 
       7 C6         0.0786    1.3503    4.0230 C.ar      1 <0>         0.1672 
       8 C7         0.6601    0.9111    2.8278 C.ar      1 <0>        -0.1836 
       9 O2         0.7999    2.1383    4.8807 O.3       1 <0>        -0.2863 
      10 C8         2.1798    1.8220    5.0823 C.3       1 <0>         0.0425 
      11 C9         2.2975    0.4305    5.6567 C.2       1 <0>         0.5165 
      12 O3         2.7608   -0.4808    4.9730 O.2       1 <0>        -0.5075 
      13 N1         1.8998    0.1901    6.9030 N.am      1 <0>        -0.7277 
      14 C10        2.0144   -1.1646    7.4621 C.3       1 <0>         0.0923 
      15 C11        3.4889   -1.5027    7.6775 C.3       1 <0>         0.1538 
      16 N2         4.0355   -0.6502    8.7431 N.pl3     1 <0>        -0.9868 
      17 C12        5.0108    0.4195    8.4878 C.3       1 <0>         0.0701 
      18 C13        5.5034    0.7887    9.8994 C.3       1 <0>        -0.1323 
      19 C14        4.2759    0.7222   10.8270 C.3       1 <0>        -0.5903 
      20 S1         3.5207   -0.8595   10.3756 S.o2      1 <0>         2.5602 
      21 O4         2.0956   -0.7730   10.4567 O.2       1 <0>        -0.9507 
      22 O5         4.2487   -1.9461   10.9539 O.2       1 <0>        -0.9534 
      23 H1        -0.9979   -1.7505    0.2421 H         1 <0>         0.1028 
      24 H2         0.5515   -1.8863   -0.6174 H         1 <0>         0.0577 
      25 H3         0.4386   -2.3616    1.0911 H         1 <0>         0.0578 
      26 H4        -1.9669   -0.8009    1.5600 H         1 <0>         0.1309 
      27 H5        -2.9943   -0.0652    3.6861 H         1 <0>         0.1300 
      28 H6        -1.6693    1.3138    5.2821 H         1 <0>         0.1298 
      29 H7         1.6841    1.2082    2.6563 H         1 <0>         0.1413 
      30 H8         2.6194    2.5376    5.7740 H         1 <0>         0.0972 
      31 H9         2.7054    1.8665    4.1308 H         1 <0>         0.0968 
      32 H10        1.5193    0.9377    7.4654 H         1 <0>         0.4034 
      33 H11        1.5760   -1.8812    6.7709 H         1 <0>         0.0764 
      34 H12        1.4898   -1.2103    8.4142 H         1 <0>         0.0833 
      35 H13        4.0400   -1.3281    6.7558 H         1 <0>         0.0878 
      36 H14        3.5839   -2.5476    7.9653 H         1 <0>         0.0899 
      37 H15        5.8167    0.0056    7.8853 H         1 <0>         0.0810 
      38 H16        4.5781    1.2766    7.9760 H         1 <0>         0.0967 
      39 H17        5.8754    1.8111    9.8906 H         1 <0>         0.1151 
      40 H18        6.3008    0.1287   10.2344 H         1 <0>         0.0972 
      41 H19        4.5835    0.6732   11.8694 H         1 <0>         0.1443 
      42 H20        3.5714    1.5395   10.6877 H         1 <0>         0.1447 
@<TRIPOS>BOND
       1        1        2 1        
       2        1       23 1        
       3        1       24 1        
       4        1       25 1        
       5        2        3 1        
       6        3        8 ar       
       7        3        4 ar       
       8        4        5 ar       
       9        4       26 1        
      10        5        6 ar       
      11        5       27 1        
      12        6        7 ar       
      13        6       28 1        
      14        7        8 ar       
      15        7        9 1        
      16        8       29 1        
      17        9       10 1        
      18       10       11 1        
      19       10       30 1        
      20       10       31 1        
      21       11       12 2        
      22       11       13 am       
      23       13       14 1        
      24       13       32 1        
      25       14       15 1        
      26       14       33 1        
      27       14       34 1        
      28       15       16 1        
      29       15       35 1        
      30       15       36 1        
      31       16       20 1        
      32       16       17 1        
      33       17       18 1        
      34       17       37 1        
      35       17       38 1        
      36       18       19 1        
      37       18       39 1        
      38       18       40 1        
      39       19       20 1        
      40       19       41 1        
      41       19       42 1        
      42       20       21 2        
      43       20       22 2        

