#        1GCZ_R01_S0001_C0000_L00014_S0001_C0046_G0010_E0001.mol2
#        Tue Jun  6 09:59:58 2017
#        Descriptor:      9     2    15     8     8    14
#        Energy - RMSD - RMSD MassCentre:     -53.2188    999.9999    999.9999
#        Receptor:       1  Surface Point:     1  Conformer:     0
#        Ligand:        14  Surface Point:     1  Conformer:    46
#        BUDE Formal Charge: 0
#        ATOM Count: 42
#        Heavy ATOM Count: 22
@<TRIPOS>MOLECULE
ZINC61597528_1GCZ_R01_S0001_C0000_L00014_S0001_C0046_G0010_E0001
 42 43 0 0 0
SMALL
USER_CHARGES
@<TRIPOS>ATOM
       1 C1        -0.4441   -2.2277    0.7651 C.3       1 <0>         0.0268 
       2 O1         0.6237   -1.3401    1.1069 O.3       1 <0>        -0.3133 
       3 C2         0.4331   -0.4795    2.1556 C.ar      1 <0>         0.1677 
       4 C3        -0.8227    0.1285    2.2704 C.ar      1 <0>        -0.2433 
       5 C4        -1.1146    1.0147    3.3109 C.ar      1 <0>        -0.0391 
       6 C5        -0.1297    1.3124    4.2602 C.ar      1 <0>        -0.2473 
       7 C6         1.1361    0.7253    4.1466 C.ar      1 <0>         0.1672 
       8 C7         1.4103   -0.1757    3.1109 C.ar      1 <0>        -0.1836 
       9 O2         2.1138    1.0353    5.0549 O.3       1 <0>        -0.2863 
      10 C8         2.9555   -0.0224    5.5216 C.3       1 <0>         0.0425 
      11 C9         2.1126   -1.0669    6.2138 C.2       1 <0>         0.5165 
      12 O3         1.9515   -2.1704    5.6956 O.2       1 <0>        -0.5075 
      13 N1         1.5442   -0.7931    7.3847 N.am      1 <0>        -0.7277 
      14 C10        1.7369    0.5262    8.0041 C.3       1 <0>         0.0923 
      15 C11        0.9836    0.5790    9.3324 C.3       1 <0>         0.1538 
      16 N2        -0.4632    0.5343    9.0764 N.pl3     1 <0>        -0.9868 
      17 C12       -1.2324    1.7076    8.6377 C.3       1 <0>         0.0701 
      18 C13       -2.5610    1.0955    8.1564 C.3       1 <0>        -0.1323 
      19 C14       -2.9014   -0.0451    9.1336 C.3       1 <0>        -0.5903 
      20 S1        -1.3345   -0.9423    9.2600 S.o2      1 <0>         2.5602 
      21 O4        -1.1265   -1.7490    8.0977 O.2       1 <0>        -0.9507 
      22 O5        -1.1565   -1.4570   10.5822 O.2       1 <0>        -0.9534 
      23 H1        -1.3215   -1.6479    0.4863 H         1 <0>         0.1028 
      24 H2        -0.1410   -2.8531   -0.0719 H         1 <0>         0.0577 
      25 H3        -0.6808   -2.8559    1.6212 H         1 <0>         0.0578 
      26 H4        -1.5808   -0.0946    1.5342 H         1 <0>         0.1309 
      27 H5        -2.0920    1.4688    3.3812 H         1 <0>         0.1300 
      28 H6        -0.3414    1.9888    5.0750 H         1 <0>         0.1298 
      29 H7         2.4007   -0.6065    3.1011 H         1 <0>         0.1413 
      30 H8         3.6854    0.3765    6.2228 H         1 <0>         0.0972 
      31 H9         3.4718   -0.4750    4.6777 H         1 <0>         0.0968 
      32 H10        0.9803   -1.4908    7.8485 H         1 <0>         0.4034 
      33 H11        1.3545    1.2985    7.3401 H         1 <0>         0.0764 
      34 H12        2.7972    0.6925    8.1823 H         1 <0>         0.0833 
      35 H13        1.2308    1.5015    9.8536 H         1 <0>         0.0878 
      36 H14        1.2692   -0.2728    9.9461 H         1 <0>         0.0899 
      37 H15       -1.3859    2.3531    9.5000 H         1 <0>         0.0810 
      38 H16       -0.7386    2.2689    7.8472 H         1 <0>         0.0967 
      39 H17       -2.4189    0.6708    7.1649 H         1 <0>         0.1151 
      40 H18       -3.3544    1.8386    8.1089 H         1 <0>         0.0972 
      41 H19       -3.1526    0.3512   10.1152 H         1 <0>         0.1443 
      42 H20       -3.6954   -0.7030    8.7863 H         1 <0>         0.1447 
@<TRIPOS>BOND
       1        1        2 1        
       2        1       23 1        
       3        1       24 1        
       4        1       25 1        
       5        2        3 1        
       6        3        8 ar       
       7        3        4 ar       
       8        4        5 ar       
       9        4       26 1        
      10        5        6 ar       
      11        5       27 1        
      12        6        7 ar       
      13        6       28 1        
      14        7        8 ar       
      15        7        9 1        
      16        8       29 1        
      17        9       10 1        
      18       10       11 1        
      19       10       30 1        
      20       10       31 1        
      21       11       12 2        
      22       11       13 am       
      23       13       14 1        
      24       13       32 1        
      25       14       15 1        
      26       14       33 1        
      27       14       34 1        
      28       15       16 1        
      29       15       35 1        
      30       15       36 1        
      31       16       20 1        
      32       16       17 1        
      33       17       18 1        
      34       17       37 1        
      35       17       38 1        
      36       18       19 1        
      37       18       39 1        
      38       18       40 1        
      39       19       20 1        
      40       19       41 1        
      41       19       42 1        
      42       20       21 2        
      43       20       22 2        

