#        1GCZ_R01_S0001_C0000_L00014_S0001_C0046_G0010_E0001.mol2
#        Tue Jun  6 14:16:07 2017
#        Descriptor:     19     4     7    11     9    14
#        Energy - RMSD - RMSD MassCentre:     -48.0784    999.9999    999.9999
#        Receptor:       1  Surface Point:     1  Conformer:     0
#        Ligand:        14  Surface Point:     1  Conformer:    46
#        BUDE Formal Charge: 0
#        ATOM Count: 42
#        Heavy ATOM Count: 22
@<TRIPOS>MOLECULE
ZINC61597528_1GCZ_R01_S0001_C0000_L00014_S0001_C0046_G0010_E0001
 42 43 0 0 0
SMALL
USER_CHARGES
@<TRIPOS>ATOM
       1 C1        -2.2632   -1.1065    6.6528 C.3       1 <0>         0.0268 
       2 O1        -1.8134   -0.6081    5.3902 O.3       1 <0>        -0.3133 
       3 C2        -0.7849    0.2967    5.3859 C.ar      1 <0>         0.1677 
       4 C3        -0.7920    1.2853    6.3772 C.ar      1 <0>        -0.2433 
       5 C4         0.2185    2.2473    6.4589 C.ar      1 <0>        -0.0391 
       6 C5         1.2618    2.2328    5.5256 C.ar      1 <0>        -0.2473 
       7 C6         1.2713    1.2607    4.5183 C.ar      1 <0>         0.1672 
       8 C7         0.2637    0.2907    4.4584 C.ar      1 <0>        -0.1836 
       9 O2         2.2732    1.2591    3.5838 O.3       1 <0>        -0.2863 
      10 C8         2.8160   -0.0023    3.1847 C.3       1 <0>         0.0425 
      11 C9         3.4168   -0.6932    4.3856 C.2       1 <0>         0.5165 
      12 O3         2.8802   -1.6974    4.8505 O.2       1 <0>        -0.5075 
      13 N1         4.5270   -0.2155    4.9408 N.am      1 <0>        -0.7277 
      14 C10        5.1683    0.9849    4.3851 C.3       1 <0>         0.0923 
      15 C11        6.4159    1.3189    5.2015 C.3       1 <0>         0.1538 
      16 N2         6.0179    1.7432    6.5515 N.pl3     1 <0>        -0.9868 
      17 C12        5.5106    3.0908    6.8472 C.3       1 <0>         0.0701 
      18 C13        4.8975    2.9340    8.2512 C.3       1 <0>        -0.1323 
      19 C14        5.8311    1.9958    9.0385 C.3       1 <0>        -0.5903 
      20 S1         6.1078    0.6391    7.8729 S.o2      1 <0>         2.5602 
      21 O4         4.9681   -0.2238    7.8322 O.2       1 <0>        -0.9507 
      22 O5         7.4388    0.1320    8.0001 O.2       1 <0>        -0.9534 
      23 H1        -2.6247   -0.2795    7.2604 H         1 <0>         0.1028 
      24 H2        -3.0689   -1.8201    6.4941 H         1 <0>         0.0577 
      25 H3        -1.4375   -1.5982    7.1628 H         1 <0>         0.0578 
      26 H4        -1.6006    1.3020    7.0930 H         1 <0>         0.1309 
      27 H5         0.1938    2.9981    7.2349 H         1 <0>         0.1300 
      28 H6         2.0548    2.9640    5.5796 H         1 <0>         0.1298 
      29 H7         0.3499   -0.4407    3.6684 H         1 <0>         0.1413 
      30 H8         3.5878    0.1553    2.4342 H         1 <0>         0.0972 
      31 H9         2.0253   -0.6226    2.7681 H         1 <0>         0.0968 
      32 H10        4.9296   -0.6767    5.7440 H         1 <0>         0.4034 
      33 H11        4.4733    1.8209    4.4276 H         1 <0>         0.0764 
      34 H12        5.4512    0.7999    3.3509 H         1 <0>         0.0833 
      35 H13        6.9631    2.1240    4.7156 H         1 <0>         0.0878 
      36 H14        7.0510    0.4383    5.2713 H         1 <0>         0.0899 
      37 H15        6.3564    3.7750    6.8611 H         1 <0>         0.0810 
      38 H16        4.7753    3.4369    6.1238 H         1 <0>         0.0967 
      39 H17        3.9231    2.4584    8.1631 H         1 <0>         0.1151 
      40 H18        4.7752    3.8943    8.7480 H         1 <0>         0.0972 
      41 H19        6.7849    2.4801    9.2375 H         1 <0>         0.1443 
      42 H20        5.4041    1.6246    9.9678 H         1 <0>         0.1447 
@<TRIPOS>BOND
       1        1        2 1        
       2        1       23 1        
       3        1       24 1        
       4        1       25 1        
       5        2        3 1        
       6        3        8 ar       
       7        3        4 ar       
       8        4        5 ar       
       9        4       26 1        
      10        5        6 ar       
      11        5       27 1        
      12        6        7 ar       
      13        6       28 1        
      14        7        8 ar       
      15        7        9 1        
      16        8       29 1        
      17        9       10 1        
      18       10       11 1        
      19       10       30 1        
      20       10       31 1        
      21       11       12 2        
      22       11       13 am       
      23       13       14 1        
      24       13       32 1        
      25       14       15 1        
      26       14       33 1        
      27       14       34 1        
      28       15       16 1        
      29       15       35 1        
      30       15       36 1        
      31       16       20 1        
      32       16       17 1        
      33       17       18 1        
      34       17       37 1        
      35       17       38 1        
      36       18       19 1        
      37       18       39 1        
      38       18       40 1        
      39       19       20 1        
      40       19       41 1        
      41       19       42 1        
      42       20       21 2        
      43       20       22 2        

