#        1GCZ_R01_S0001_C0000_L00014_S0001_C0047_G0010_E0001.mol2
#        Tue Jun  6 09:59:58 2017
#        Descriptor:      1    16    16     8     9    15
#        Energy - RMSD - RMSD MassCentre:     -49.5074    999.9999    999.9999
#        Receptor:       1  Surface Point:     1  Conformer:     0
#        Ligand:        14  Surface Point:     1  Conformer:    47
#        BUDE Formal Charge: 0
#        ATOM Count: 42
#        Heavy ATOM Count: 22
@<TRIPOS>MOLECULE
ZINC61597528_1GCZ_R01_S0001_C0000_L00014_S0001_C0047_G0010_E0001
 42 43 0 0 0
SMALL
USER_CHARGES
@<TRIPOS>ATOM
       1 C1        -0.9548   -5.0143    7.7846 C.3       1 <0>         0.0268 
       2 O1        -1.5674   -3.7440    7.5480 O.3       1 <0>        -0.3133 
       3 C2        -0.7700   -2.7161    7.1187 C.ar      1 <0>         0.1677 
       4 C3         0.4971   -2.5965    7.7017 C.ar      1 <0>        -0.2433 
       5 C4         1.3844   -1.5850    7.3236 C.ar      1 <0>        -0.0391 
       6 C5         1.0005   -0.6612    6.3444 C.ar      1 <0>        -0.2473 
       7 C6        -0.2708   -0.7585    5.7663 C.ar      1 <0>         0.1672 
       8 C7        -1.1433   -1.7876    6.1397 C.ar      1 <0>        -0.1836 
       9 O2        -0.6642    0.1601    4.8291 O.3       1 <0>        -0.2863 
      10 C8        -2.0103    0.6394    4.8836 C.3       1 <0>         0.0425 
      11 C9        -2.2465    1.3246    6.2083 C.2       1 <0>         0.5165 
      12 O3        -2.9835    0.8077    7.0462 O.2       1 <0>        -0.5075 
      13 N1        -1.6571    2.4881    6.4690 N.am      1 <0>        -0.7277 
      14 C10       -0.7762    3.1060    5.4673 C.3       1 <0>         0.0923 
      15 C11       -0.2325    4.4254    6.0133 C.3       1 <0>         0.1538 
      16 N2         0.6742    4.1530    7.1379 N.pl3     1 <0>        -0.9868 
      17 C12        2.1344    4.0800    6.9858 C.3       1 <0>         0.0701 
      18 C13        2.5959    3.4719    8.3233 C.3       1 <0>        -0.1323 
      19 C14        1.7104    4.0927    9.4197 C.3       1 <0>        -0.5903 
      20 S1         0.0459    3.9280    8.7280 S.o2      1 <0>         2.5602 
      21 O4        -0.7620    5.0477    9.1004 O.2       1 <0>        -0.9507 
      22 O5        -0.4191    2.5816    8.8549 O.2       1 <0>        -0.9534 
      23 H1        -0.1989   -4.9128    8.5604 H         1 <0>         0.1028 
      24 H2        -1.7115   -5.7269    8.1056 H         1 <0>         0.0577 
      25 H3        -0.4887   -5.3678    6.8673 H         1 <0>         0.0578 
      26 H4         0.7913   -3.3041    8.4627 H         1 <0>         0.1309 
      27 H5         2.3585   -1.5149    7.7848 H         1 <0>         0.1300 
      28 H6         1.6773    0.1214    6.0349 H         1 <0>         0.1298 
      29 H7        -2.0974   -1.8130    5.6342 H         1 <0>         0.1413 
      30 H8        -2.6984   -0.1971    4.7810 H         1 <0>         0.0972 
      31 H9        -2.1766    1.3479    4.0748 H         1 <0>         0.0968 
      32 H10       -1.8144    2.9474    7.3547 H         1 <0>         0.4034 
      33 H11       -1.3395    3.2960    4.5561 H         1 <0>         0.0764 
      34 H12        0.0524    2.4356    5.2493 H         1 <0>         0.0833 
      35 H13       -1.0589    5.0447    6.3564 H         1 <0>         0.0878 
      36 H14        0.3110    4.9471    5.2284 H         1 <0>         0.0899 
      37 H15        2.3550    3.4144    6.1539 H         1 <0>         0.0810 
      38 H16        2.5926    5.0503    6.8060 H         1 <0>         0.0967 
      39 H17        3.6286    3.7604    8.5081 H         1 <0>         0.1151 
      40 H18        2.5314    2.3859    8.3169 H         1 <0>         0.0972 
      41 H19        1.7636    3.5069   10.3349 H         1 <0>         0.1443 
      42 H20        1.9373    5.1349    9.6343 H         1 <0>         0.1447 
@<TRIPOS>BOND
       1        1        2 1        
       2        1       23 1        
       3        1       24 1        
       4        1       25 1        
       5        2        3 1        
       6        3        8 ar       
       7        3        4 ar       
       8        4        5 ar       
       9        4       26 1        
      10        5        6 ar       
      11        5       27 1        
      12        6        7 ar       
      13        6       28 1        
      14        7        8 ar       
      15        7        9 1        
      16        8       29 1        
      17        9       10 1        
      18       10       11 1        
      19       10       30 1        
      20       10       31 1        
      21       11       12 2        
      22       11       13 am       
      23       13       14 1        
      24       13       32 1        
      25       14       15 1        
      26       14       33 1        
      27       14       34 1        
      28       15       16 1        
      29       15       35 1        
      30       15       36 1        
      31       16       20 1        
      32       16       17 1        
      33       17       18 1        
      34       17       37 1        
      35       17       38 1        
      36       18       19 1        
      37       18       39 1        
      38       18       40 1        
      39       19       20 1        
      40       19       41 1        
      41       19       42 1        
      42       20       21 2        
      43       20       22 2        

