#        1GCZ_R01_S0001_C0000_L00014_S0001_C0047_G0010_E0001.mol2
#        Tue Jun  6 14:16:08 2017
#        Descriptor:     21     2     1    10     9    14
#        Energy - RMSD - RMSD MassCentre:     -49.7013    999.9999    999.9999
#        Receptor:       1  Surface Point:     1  Conformer:     0
#        Ligand:        14  Surface Point:     1  Conformer:    47
#        BUDE Formal Charge: 0
#        ATOM Count: 42
#        Heavy ATOM Count: 22
@<TRIPOS>MOLECULE
ZINC61597528_1GCZ_R01_S0001_C0000_L00014_S0001_C0047_G0010_E0001
 42 43 0 0 0
SMALL
USER_CHARGES
@<TRIPOS>ATOM
       1 C1         4.8335   -4.3230    4.8439 C.3       1 <0>         0.0268 
       2 O1         3.5746   -3.6486    4.9167 O.3       1 <0>        -0.3133 
       3 C2         3.5784   -2.2787    4.9161 C.ar      1 <0>         0.1677 
       4 C3         4.5711   -1.6366    5.6657 C.ar      1 <0>        -0.2433 
       5 C4         4.6610   -0.2429    5.7202 C.ar      1 <0>        -0.0391 
       6 C5         3.7345    0.5359    5.0168 C.ar      1 <0>        -0.2473 
       7 C6         2.7256   -0.0934    4.2779 C.ar      1 <0>         0.1672 
       8 C7         2.6578   -1.4903    4.2156 C.ar      1 <0>        -0.1836 
       9 O2         1.7977    0.6629    3.6115 O.3       1 <0>        -0.2863 
      10 C8         0.4364    0.2259    3.6322 C.3       1 <0>         0.0425 
      11 C9        -0.0580    0.1895    5.0585 C.2       1 <0>         0.5165 
      12 O3        -0.2838   -0.8890    5.6047 O.2       1 <0>        -0.5075 
      13 N1        -0.2496    1.3247    5.7245 N.am      1 <0>        -0.7277 
      14 C10        0.0200    2.6139    5.0716 C.3       1 <0>         0.0923 
      15 C11       -0.2789    3.7506    6.0479 C.3       1 <0>         0.1538 
      16 N2         0.6954    3.7192    7.1482 N.pl3     1 <0>        -0.9868 
      17 C12        1.9019    4.5586    7.1698 C.3       1 <0>         0.0701 
      18 C13        2.7316    3.9501    8.3156 C.3       1 <0>        -0.1323 
      19 C14        1.7355    3.5602    9.4235 C.3       1 <0>        -0.5903 
      20 S1         0.4415    2.6878    8.5068 S.o2      1 <0>         2.5602 
      21 O4        -0.8402    2.9449    9.0865 O.2       1 <0>        -0.9507 
      22 O5         0.8700    1.3658    8.1696 O.2       1 <0>        -0.9534 
      23 H1         5.4400   -4.0513    5.7053 H         1 <0>         0.1028 
      24 H2         4.6685   -5.3982    4.8404 H         1 <0>         0.0577 
      25 H3         5.3480   -4.0313    3.9308 H         1 <0>         0.0578 
      26 H4         5.2817   -2.2366    6.2149 H         1 <0>         0.1309 
      27 H5         5.4379    0.2302    6.3024 H         1 <0>         0.1300 
      28 H6         3.7948    1.6140    5.0417 H         1 <0>         0.1298 
      29 H7         1.8673   -1.9042    3.6072 H         1 <0>         0.1413 
      30 H8         0.3679   -0.7702    3.1999 H         1 <0>         0.0972 
      31 H9        -0.1753    0.9155    3.0544 H         1 <0>         0.0968 
      32 H10       -0.5804    1.3016    6.6785 H         1 <0>         0.4034 
      33 H11       -0.6133    2.7156    4.1928 H         1 <0>         0.0764 
      34 H12        1.0654    2.6584    4.7733 H         1 <0>         0.0833 
      35 H13       -1.2829    3.6297    6.4497 H         1 <0>         0.0878 
      36 H14       -0.2077    4.7039    5.5285 H         1 <0>         0.0899 
      37 H15        2.4091    4.4465    6.2139 H         1 <0>         0.0810 
      38 H16        1.6854    5.6105    7.3449 H         1 <0>         0.0967 
      39 H17        3.4063    4.7080    8.7081 H         1 <0>         0.1151 
      40 H18        3.3190    3.0978    7.9805 H         1 <0>         0.0972 
      41 H19        2.1920    2.8638   10.1238 H         1 <0>         0.1443 
      42 H20        1.3202    4.4084    9.9636 H         1 <0>         0.1447 
@<TRIPOS>BOND
       1        1        2 1        
       2        1       23 1        
       3        1       24 1        
       4        1       25 1        
       5        2        3 1        
       6        3        8 ar       
       7        3        4 ar       
       8        4        5 ar       
       9        4       26 1        
      10        5        6 ar       
      11        5       27 1        
      12        6        7 ar       
      13        6       28 1        
      14        7        8 ar       
      15        7        9 1        
      16        8       29 1        
      17        9       10 1        
      18       10       11 1        
      19       10       30 1        
      20       10       31 1        
      21       11       12 2        
      22       11       13 am       
      23       13       14 1        
      24       13       32 1        
      25       14       15 1        
      26       14       33 1        
      27       14       34 1        
      28       15       16 1        
      29       15       35 1        
      30       15       36 1        
      31       16       20 1        
      32       16       17 1        
      33       17       18 1        
      34       17       37 1        
      35       17       38 1        
      36       18       19 1        
      37       18       39 1        
      38       18       40 1        
      39       19       20 1        
      40       19       41 1        
      41       19       42 1        
      42       20       21 2        
      43       20       22 2        

