#        1GCZ_R01_S0001_C0000_L00014_S0001_C0048_G0010_E0001.mol2
#        Tue Jun  6 09:59:59 2017
#        Descriptor:     33    15    32     8     9    13
#        Energy - RMSD - RMSD MassCentre:     -56.5735    999.9999    999.9999
#        Receptor:       1  Surface Point:     1  Conformer:     0
#        Ligand:        14  Surface Point:     1  Conformer:    48
#        BUDE Formal Charge: 0
#        ATOM Count: 42
#        Heavy ATOM Count: 22
@<TRIPOS>MOLECULE
ZINC61597528_1GCZ_R01_S0001_C0000_L00014_S0001_C0048_G0010_E0001
 42 43 0 0 0
SMALL
USER_CHARGES
@<TRIPOS>ATOM
       1 C1        -0.4929   -1.3538   -1.5128 C.3       1 <0>         0.0268 
       2 O1         0.3338   -1.2383   -0.3517 O.3       1 <0>        -0.3133 
       3 C2        -0.1674   -0.5622    0.7293 C.ar      1 <0>         0.1677 
       4 C3        -0.8985    0.6048    0.4773 C.ar      1 <0>        -0.2433 
       5 C4        -1.4556    1.3579    1.5144 C.ar      1 <0>        -0.0391 
       6 C5        -1.2756    0.9454    2.8401 C.ar      1 <0>        -0.2473 
       7 C6        -0.5312   -0.2097    3.1070 C.ar      1 <0>         0.1672 
       8 C7         0.0056   -0.9661    2.0585 C.ar      1 <0>        -0.1836 
       9 O2        -0.3258   -0.6024    4.4033 O.3       1 <0>        -0.2863 
      10 C8         0.9668   -1.1017    4.7562 C.3       1 <0>         0.0425 
      11 C9         2.0023   -0.0290    4.5167 C.2       1 <0>         0.5165 
      12 O3         2.8156   -0.1514    3.6024 O.2       1 <0>        -0.5075 
      13 N1         2.0348    1.0489    5.2952 N.am      1 <0>        -0.7277 
      14 C10        1.0626    1.1951    6.3881 C.3       1 <0>         0.0923 
      15 C11        1.3167    2.5112    7.1218 C.3       1 <0>         0.1538 
      16 N2         0.3446    2.6574    8.2147 N.pl3     1 <0>        -0.9868 
      17 C12       -0.7358    3.6540    8.1935 C.3       1 <0>         0.0701 
      18 C13       -1.2581    3.6353    9.6421 C.3       1 <0>        -0.1323 
      19 C14       -1.2291    2.1663   10.1032 C.3       1 <0>        -0.5903 
      20 S1         0.4187    1.6203    9.5905 S.o2      1 <0>         2.5602 
      21 O4         0.3845    0.2518    9.1769 O.2       1 <0>        -0.9507 
      22 O5         1.4138    2.1162   10.4898 O.2       1 <0>        -0.9534 
      23 H1        -0.7222   -0.3609   -1.8940 H         1 <0>         0.1028 
      24 H2         0.0326   -1.9237   -2.2761 H         1 <0>         0.0577 
      25 H3        -1.4170   -1.8643   -1.2499 H         1 <0>         0.0578 
      26 H4        -1.0314    0.9279   -0.5446 H         1 <0>         0.1309 
      27 H5        -2.0190    2.2528    1.2955 H         1 <0>         0.1300 
      28 H6        -1.7064    1.5115    3.6528 H         1 <0>         0.1298 
      29 H7         0.5476   -1.8570    2.3398 H         1 <0>         0.1413 
      30 H8         1.1992   -1.9719    4.1459 H         1 <0>         0.0972 
      31 H9         0.9732   -1.3829    5.8073 H         1 <0>         0.0968 
      32 H10        2.7270    1.7669    5.1360 H         1 <0>         0.4034 
      33 H11        1.1710    0.3659    7.0841 H         1 <0>         0.0764 
      34 H12        0.0542    1.1973    5.9795 H         1 <0>         0.0833 
      35 H13        1.2079    3.3413    6.4269 H         1 <0>         0.0878 
      36 H14        2.3246    2.5101    7.5315 H         1 <0>         0.0899 
      37 H15       -0.3005    4.6195    7.9444 H         1 <0>         0.0810 
      38 H16       -1.5215    3.4148    7.4798 H         1 <0>         0.0967 
      39 H17       -2.2897    3.9810    9.6531 H         1 <0>         0.1151 
      40 H18       -0.6669    4.2761   10.2929 H         1 <0>         0.0972 
      41 H19       -1.2924    2.1019   11.1874 H         1 <0>         0.1443 
      42 H20       -1.9991    1.5452    9.6505 H         1 <0>         0.1447 
@<TRIPOS>BOND
       1        1        2 1        
       2        1       23 1        
       3        1       24 1        
       4        1       25 1        
       5        2        3 1        
       6        3        8 ar       
       7        3        4 ar       
       8        4        5 ar       
       9        4       26 1        
      10        5        6 ar       
      11        5       27 1        
      12        6        7 ar       
      13        6       28 1        
      14        7        8 ar       
      15        7        9 1        
      16        8       29 1        
      17        9       10 1        
      18       10       11 1        
      19       10       30 1        
      20       10       31 1        
      21       11       12 2        
      22       11       13 am       
      23       13       14 1        
      24       13       32 1        
      25       14       15 1        
      26       14       33 1        
      27       14       34 1        
      28       15       16 1        
      29       15       35 1        
      30       15       36 1        
      31       16       20 1        
      32       16       17 1        
      33       17       18 1        
      34       17       37 1        
      35       17       38 1        
      36       18       19 1        
      37       18       39 1        
      38       18       40 1        
      39       19       20 1        
      40       19       41 1        
      41       19       42 1        
      42       20       21 2        
      43       20       22 2        

