#        1GCZ_R01_S0001_C0000_L00014_S0001_C0048_G0010_E0001.mol2
#        Tue Jun  6 14:16:10 2017
#        Descriptor:     13     2    13     7     9    14
#        Energy - RMSD - RMSD MassCentre:     -56.2745    999.9999    999.9999
#        Receptor:       1  Surface Point:     1  Conformer:     0
#        Ligand:        14  Surface Point:     1  Conformer:    48
#        BUDE Formal Charge: 0
#        ATOM Count: 42
#        Heavy ATOM Count: 22
@<TRIPOS>MOLECULE
ZINC61597528_1GCZ_R01_S0001_C0000_L00014_S0001_C0048_G0010_E0001
 42 43 0 0 0
SMALL
USER_CHARGES
@<TRIPOS>ATOM
       1 C1         0.1565   -0.7784   -0.6106 C.3       1 <0>         0.0268 
       2 O1         0.5199   -0.9891    0.7563 O.3       1 <0>        -0.3133 
       3 C2        -0.1083   -0.2345    1.7118 C.ar      1 <0>         0.1677 
       4 C3        -0.3320    1.1166    1.4220 C.ar      1 <0>        -0.2433 
       5 C4        -0.9723    1.9640    2.3304 C.ar      1 <0>        -0.0391 
       6 C5        -1.3958    1.4579    3.5650 C.ar      1 <0>        -0.2473 
       7 C6        -1.1621    0.1129    3.8749 C.ar      1 <0>         0.1672 
       8 C7        -0.5368   -0.7305    2.9489 C.ar      1 <0>        -0.1836 
       9 O2        -1.5470   -0.3815    5.0933 O.3       1 <0>        -0.2863 
      10 C8        -0.6644   -1.2892    5.7581 C.3       1 <0>         0.0425 
      11 C9         0.6532   -0.6024    6.0271 C.2       1 <0>         0.5165 
      12 O3         1.6620   -0.9427    5.4114 O.2       1 <0>        -0.5075 
      13 N1         0.7230    0.3712    6.9305 N.am      1 <0>        -0.7277 
      14 C10       -0.4828    0.7779    7.6665 C.3       1 <0>         0.0923 
      15 C11       -0.1309    1.9062    8.6349 C.3       1 <0>         0.1538 
      16 N2        -1.3367    2.3130    9.3708 N.pl3     1 <0>        -0.9868 
      17 C12       -2.0017    3.6068    9.1598 C.3       1 <0>         0.0701 
      18 C13       -2.9793    3.6958   10.3464 C.3       1 <0>        -0.1323 
      19 C14       -3.5417    2.2786   10.5627 C.3       1 <0>        -0.5903 
      20 S1        -2.0536    1.2492   10.5233 S.o2      1 <0>         2.5602 
      21 O4        -2.3370   -0.0143    9.9164 O.2       1 <0>        -0.9507 
      22 O5        -1.3380    1.3544   11.7570 O.2       1 <0>        -0.9534 
      23 H1         0.3743    0.2507   -0.8885 H         1 <0>         0.1028 
      24 H2         0.7261   -1.4544   -1.2448 H         1 <0>         0.0577 
      25 H3        -0.9068   -0.9714   -0.7364 H         1 <0>         0.0578 
      26 H4         0.0012    1.5097    0.4729 H         1 <0>         0.1309 
      27 H5        -1.1373    3.0022    2.0831 H         1 <0>         0.1300 
      28 H6        -1.8994    2.0973    4.2751 H         1 <0>         0.1298 
      29 H7        -0.4115   -1.7606    3.2483 H         1 <0>         0.1413 
      30 H8        -0.4968   -2.1601    5.1280 H         1 <0>         0.0972 
      31 H9        -1.1083   -1.6027    6.7007 H         1 <0>         0.0968 
      32 H10        1.6037    0.8311    7.1113 H         1 <0>         0.4034 
      33 H11       -0.8709   -0.0710    8.2255 H         1 <0>         0.0764 
      34 H12       -1.2372    1.1259    6.9639 H         1 <0>         0.0833 
      35 H13        0.2566    2.7562    8.0769 H         1 <0>         0.0878 
      36 H14        0.6229    1.5593    9.3385 H         1 <0>         0.0899 
      37 H15       -1.2463    4.3880    9.2126 H         1 <0>         0.0810 
      38 H16       -2.5211    3.6677    8.2057 H         1 <0>         0.0967 
      39 H17       -3.8013    4.3576   10.0817 H         1 <0>         0.1151 
      40 H18       -2.4944    4.0803   11.2413 H         1 <0>         0.0972 
      41 H19       -3.9963    2.1910   11.5472 H         1 <0>         0.1443 
      42 H20       -4.2495    1.9623    9.7994 H         1 <0>         0.1447 
@<TRIPOS>BOND
       1        1        2 1        
       2        1       23 1        
       3        1       24 1        
       4        1       25 1        
       5        2        3 1        
       6        3        8 ar       
       7        3        4 ar       
       8        4        5 ar       
       9        4       26 1        
      10        5        6 ar       
      11        5       27 1        
      12        6        7 ar       
      13        6       28 1        
      14        7        8 ar       
      15        7        9 1        
      16        8       29 1        
      17        9       10 1        
      18       10       11 1        
      19       10       30 1        
      20       10       31 1        
      21       11       12 2        
      22       11       13 am       
      23       13       14 1        
      24       13       32 1        
      25       14       15 1        
      26       14       33 1        
      27       14       34 1        
      28       15       16 1        
      29       15       35 1        
      30       15       36 1        
      31       16       20 1        
      32       16       17 1        
      33       17       18 1        
      34       17       37 1        
      35       17       38 1        
      36       18       19 1        
      37       18       39 1        
      38       18       40 1        
      39       19       20 1        
      40       19       41 1        
      41       19       42 1        
      42       20       21 2        
      43       20       22 2        

