#        1GCZ_R01_S0001_C0000_L00014_S0001_C0049_G0010_E0001.mol2
#        Tue Jun  6 10:00:00 2017
#        Descriptor:     33    18    13     8     9    13
#        Energy - RMSD - RMSD MassCentre:     -55.5413    999.9999    999.9999
#        Receptor:       1  Surface Point:     1  Conformer:     0
#        Ligand:        14  Surface Point:     1  Conformer:    49
#        BUDE Formal Charge: 0
#        ATOM Count: 42
#        Heavy ATOM Count: 22
@<TRIPOS>MOLECULE
ZINC61597528_1GCZ_R01_S0001_C0000_L00014_S0001_C0049_G0010_E0001
 42 43 0 0 0
SMALL
USER_CHARGES
@<TRIPOS>ATOM
       1 C1        -1.0982   -3.2474    0.0603 C.3       1 <0>         0.0268 
       2 O1        -0.0676   -2.2876   -0.1879 O.3       1 <0>        -0.3133 
       3 C2        -0.2075   -1.0389    0.3578 C.ar      1 <0>         0.1677 
       4 C3         0.1589    0.0556   -0.4344 C.ar      1 <0>        -0.2433 
       5 C4         0.0446    1.3681    0.0320 C.ar      1 <0>        -0.0391 
       6 C5        -0.4400    1.6009    1.3246 C.ar      1 <0>        -0.2473 
       7 C6        -0.7928    0.5144    2.1339 C.ar      1 <0>         0.1672 
       8 C7        -0.6918   -0.7946    1.6484 C.ar      1 <0>        -0.1836 
       9 O2        -1.2393    0.7337    3.4105 O.3       1 <0>        -0.2863 
      10 C8        -0.7870   -0.1493    4.4402 C.3       1 <0>         0.0425 
      11 C9        -1.3927    0.2655    5.7598 C.2       1 <0>         0.5165 
      12 O3        -2.2451   -0.4411    6.2952 O.2       1 <0>        -0.5075 
      13 N1        -1.0043    1.3958    6.3433 N.am      1 <0>        -0.7277 
      14 C10       -1.5940    1.7996    7.6279 C.3       1 <0>         0.0923 
      15 C11       -0.9786    3.1245    8.0757 C.3       1 <0>         0.1538 
      16 N2         0.4392    2.9189    8.4049 N.pl3     1 <0>        -0.9868 
      17 C12        1.4154    2.3970    7.4377 C.3       1 <0>         0.0701 
      18 C13        2.7689    2.7116    8.1015 C.3       1 <0>        -0.1323 
      19 C14        2.5891    2.4625    9.6106 C.3       1 <0>        -0.5903 
      20 S1         1.0354    3.3171    9.9731 S.o2      1 <0>         2.5602 
      21 O4         1.2473    4.7297   10.0417 O.2       1 <0>        -0.9507 
      22 O5         0.2964    2.6116   10.9737 O.2       1 <0>        -0.9534 
      23 H1        -2.0402   -2.8786   -0.3398 H         1 <0>         0.1028 
      24 H2        -0.8413   -4.1875   -0.4231 H         1 <0>         0.0577 
      25 H3        -1.1956   -3.4048    1.1324 H         1 <0>         0.0578 
      26 H4         0.5400   -0.1234   -1.4290 H         1 <0>         0.1309 
      27 H5         0.3300    2.1968   -0.5989 H         1 <0>         0.1300 
      28 H6        -0.5422    2.6093    1.6975 H         1 <0>         0.1298 
      29 H7        -1.0042   -1.5799    2.3210 H         1 <0>         0.1413 
      30 H8         0.2978   -0.1019    4.5090 H         1 <0>         0.0972 
      31 H9        -1.0920   -1.1671    4.2058 H         1 <0>         0.0968 
      32 H10       -0.3042    1.9768    5.9045 H         1 <0>         0.4034 
      33 H11       -1.3926    1.0358    8.3761 H         1 <0>         0.0764 
      34 H12       -2.6690    1.9205    7.5121 H         1 <0>         0.0833 
      35 H13       -1.5050    3.4908    8.9546 H         1 <0>         0.0878 
      36 H14       -1.0617    3.8536    7.2724 H         1 <0>         0.0899 
      37 H15        1.2613    1.3238    7.3472 H         1 <0>         0.0810 
      38 H16        1.3315    2.8599    6.4566 H         1 <0>         0.0967 
      39 H17        3.0039    3.7630    7.9500 H         1 <0>         0.1151 
      40 H18        3.5731    2.1091    7.6843 H         1 <0>         0.0972 
      41 H19        2.4550    1.4017    9.8123 H         1 <0>         0.1443 
      42 H20        3.3976    2.8559   10.2233 H         1 <0>         0.1447 
@<TRIPOS>BOND
       1        1        2 1        
       2        1       23 1        
       3        1       24 1        
       4        1       25 1        
       5        2        3 1        
       6        3        8 ar       
       7        3        4 ar       
       8        4        5 ar       
       9        4       26 1        
      10        5        6 ar       
      11        5       27 1        
      12        6        7 ar       
      13        6       28 1        
      14        7        8 ar       
      15        7        9 1        
      16        8       29 1        
      17        9       10 1        
      18       10       11 1        
      19       10       30 1        
      20       10       31 1        
      21       11       12 2        
      22       11       13 am       
      23       13       14 1        
      24       13       32 1        
      25       14       15 1        
      26       14       33 1        
      27       14       34 1        
      28       15       16 1        
      29       15       35 1        
      30       15       36 1        
      31       16       20 1        
      32       16       17 1        
      33       17       18 1        
      34       17       37 1        
      35       17       38 1        
      36       18       19 1        
      37       18       39 1        
      38       18       40 1        
      39       19       20 1        
      40       19       41 1        
      41       19       42 1        
      42       20       21 2        
      43       20       22 2        

