#        1GCZ_R01_S0001_C0000_L00014_S0001_C0049_G0010_E0001.mol2
#        Tue Jun  6 14:16:12 2017
#        Descriptor:      4    24    23    12     8    13
#        Energy - RMSD - RMSD MassCentre:     -49.2037    999.9999    999.9999
#        Receptor:       1  Surface Point:     1  Conformer:     0
#        Ligand:        14  Surface Point:     1  Conformer:    49
#        BUDE Formal Charge: 0
#        ATOM Count: 42
#        Heavy ATOM Count: 22
@<TRIPOS>MOLECULE
ZINC61597528_1GCZ_R01_S0001_C0000_L00014_S0001_C0049_G0010_E0001
 42 43 0 0 0
SMALL
USER_CHARGES
@<TRIPOS>ATOM
       1 C1        -0.6099   -0.1729    0.2708 C.3       1 <0>         0.0268 
       2 O1        -0.4920    1.0788    0.9522 O.3       1 <0>        -0.3133 
       3 C2        -0.1501    1.0587    2.2786 C.ar      1 <0>         0.1677 
       4 C3        -0.8080    1.9564    3.1276 C.ar      1 <0>        -0.2433 
       5 C4        -0.5328    2.0049    4.4970 C.ar      1 <0>        -0.0391 
       6 C5         0.4285    1.1429    5.0381 C.ar      1 <0>        -0.2473 
       7 C6         1.1069    0.2529    4.1971 C.ar      1 <0>         0.1672 
       8 C7         0.8086    0.2006    2.8304 C.ar      1 <0>        -0.1836 
       9 O2         2.0702   -0.5725    4.7149 O.3       1 <0>        -0.2863 
      10 C8         3.2606   -0.7768    3.9495 C.3       1 <0>         0.0425 
      11 C9         4.1829   -1.7116    4.6948 C.2       1 <0>         0.5165 
      12 O3         4.3790   -2.8498    4.2719 O.2       1 <0>        -0.5075 
      13 N1         4.7834   -1.3042    5.8094 N.am      1 <0>        -0.7277 
      14 C10        5.6813   -2.2143    6.5350 C.3       1 <0>         0.0923 
      15 C11        6.2352   -1.5048    7.7696 C.3       1 <0>         0.1538 
      16 N2         7.1275   -0.4151    7.3484 N.pl3     1 <0>        -0.9868 
      17 C12        6.6849    0.6908    6.4871 C.3       1 <0>         0.0701 
      18 C13        7.8148    1.7262    6.6381 C.3       1 <0>        -0.1323 
      19 C14        9.1348    0.9348    6.6910 C.3       1 <0>        -0.5903 
      20 S1         8.7661   -0.3757    7.8838 S.o2      1 <0>         2.5602 
      21 O4         8.8040    0.1387    9.2175 O.2       1 <0>        -0.9507 
      22 O5         9.4318   -1.5877    7.5191 O.2       1 <0>        -0.9534 
      23 H1        -1.3861   -0.7708    0.7438 H         1 <0>         0.1028 
      24 H2        -0.8718    0.0049   -0.7700 H         1 <0>         0.0577 
      25 H3         0.3387   -0.7032    0.3213 H         1 <0>         0.0578 
      26 H4        -1.5443    2.6270    2.7098 H         1 <0>         0.1309 
      27 H5        -1.0560    2.7034    5.1330 H         1 <0>         0.1300 
      28 H6         0.6474    1.1618    6.0956 H         1 <0>         0.1298 
      29 H7         1.3553   -0.5270    2.2488 H         1 <0>         0.1413 
      30 H8         3.7605    0.1769    3.7937 H         1 <0>         0.0972 
      31 H9         3.0030   -1.2135    2.9869 H         1 <0>         0.0968 
      32 H10        4.6230   -0.3696    6.1575 H         1 <0>         0.4034 
      33 H11        6.5040   -2.5068    5.8859 H         1 <0>         0.0764 
      34 H12        5.1293   -3.0997    6.8433 H         1 <0>         0.0833 
      35 H13        6.7925   -2.2148    8.3771 H         1 <0>         0.0878 
      36 H14        5.4131   -1.0947    8.3524 H         1 <0>         0.0899 
      37 H15        6.6240    0.3206    5.4658 H         1 <0>         0.0810 
      38 H16        5.7215    1.1010    6.7827 H         1 <0>         0.0967 
      39 H17        7.6900    2.2544    7.5809 H         1 <0>         0.1151 
      40 H18        7.8092    2.4512    5.8268 H         1 <0>         0.0972 
      41 H19        9.3470    0.4754    5.7278 H         1 <0>         0.1443 
      42 H20        9.9904    1.5228    7.0165 H         1 <0>         0.1447 
@<TRIPOS>BOND
       1        1        2 1        
       2        1       23 1        
       3        1       24 1        
       4        1       25 1        
       5        2        3 1        
       6        3        8 ar       
       7        3        4 ar       
       8        4        5 ar       
       9        4       26 1        
      10        5        6 ar       
      11        5       27 1        
      12        6        7 ar       
      13        6       28 1        
      14        7        8 ar       
      15        7        9 1        
      16        8       29 1        
      17        9       10 1        
      18       10       11 1        
      19       10       30 1        
      20       10       31 1        
      21       11       12 2        
      22       11       13 am       
      23       13       14 1        
      24       13       32 1        
      25       14       15 1        
      26       14       33 1        
      27       14       34 1        
      28       15       16 1        
      29       15       35 1        
      30       15       36 1        
      31       16       20 1        
      32       16       17 1        
      33       17       18 1        
      34       17       37 1        
      35       17       38 1        
      36       18       19 1        
      37       18       39 1        
      38       18       40 1        
      39       19       20 1        
      40       19       41 1        
      41       19       42 1        
      42       20       21 2        
      43       20       22 2        

