#        1GCZ_R01_S0001_C0000_L00003_S0001_C0028_G0010_E0001.mol2
#        Tue Jun  6 09:54:59 2017
#        Descriptor:     22    23    23     9    10    14
#        Energy - RMSD - RMSD MassCentre:     -63.0530    999.9999    999.9999
#        Receptor:       1  Surface Point:     1  Conformer:     0
#        Ligand:         3  Surface Point:     1  Conformer:    28
#        BUDE Formal Charge: 0
#        ATOM Count: 58
#        Heavy ATOM Count: 30
@<TRIPOS>MOLECULE
ZINC61580633_1GCZ_R01_S0001_C0000_L00003_S0001_C0028_G0010_E0001
 58 59 0 0 0
SMALL
USER_CHARGES
@<TRIPOS>ATOM
       1 C1         2.9085    1.4716   10.5967 C.3       1 <0>        -0.1532 
       2 C2         1.8869    1.1628    9.5061 C.3       1 <0>        -0.1224 
       3 C3         0.5109    0.9635   10.1399 C.3       1 <0>        -0.1198 
       4 C4        -0.5121    0.6543    9.0478 C.3       1 <0>         0.0610 
       5 O1        -0.6164    1.7729    8.1631 O.3       1 <0>        -0.3878 
       6 C5        -1.0517    2.9535    8.8428 C.3       1 <0>         0.0487 
       7 C6        -1.1430    4.1089    7.8472 C.3       1 <0>         0.1244 
       8 N1         0.2115    4.5351    7.4670 N.am      1 <0>        -0.7216 
       9 C7         0.9699    5.1942    8.3384 C.2       1 <0>         0.5161 
      10 O2         0.5388    5.4473    9.4620 O.2       1 <0>        -0.5151 
      11 C8         2.3614    5.6320    7.9478 C.3       1 <0>         0.0490 
      12 O3         3.2052    4.4839    7.8276 O.3       1 <0>        -0.3194 
      13 C9         2.9014    3.5709    6.8807 C.2       1 <0>         0.5417 
      14 O4         1.9319    3.7387    6.1592 O.2       1 <0>        -0.5337 
      15 C10        3.7447    2.3659    6.7175 C.2       1 <0>        -0.2559 
      16 C11        4.9478    2.0712    7.5275 C.2       1 <0>        -0.0791 
      17 C12        5.5347    0.9269    7.1690 C.2       1 <0>        -0.2585 
      18 S1         4.6914    0.1136    5.8425 S.3       1 <0>         0.3028 
      19 C13        3.4999    1.4217    5.7988 C.2       1 <0>         0.0893 
      20 N2         2.4405    1.5026    4.9338 N.am      1 <0>        -0.6099 
      21 C14        2.2372    0.5408    4.0381 C.2       1 <0>         0.5551 
      22 O5         3.0008   -0.4221    3.9862 O.2       1 <0>        -0.4939 
      23 C15        1.0923    0.6297    3.1045 C.ar      1 <0>        -0.1466 
      24 C16        0.9176   -0.4033    2.1758 C.ar      1 <0>        -0.0772 
      25 C17       -0.1025   -0.3395    1.2192 C.ar      1 <0>        -0.1241 
      26 C18       -0.9614    0.7646    1.1671 C.ar      1 <0>        -0.0446 
      27 C19       -0.8227    1.7735    2.1277 C.ar      1 <0>        -0.1261 
      28 C20        0.1803    1.6919    3.1010 C.ar      1 <0>        -0.0460 
      29 C21       -2.0157    0.8437    0.0889 C.3       1 <0>        -0.0928 
      30 C22       -1.4419    1.5590   -1.1308 C.3       1 <0>        -0.1485 
      31 H1         2.9587    0.6367   11.2925 H         1 <0>         0.0567 
      32 H2         2.6081    2.3712   11.1299 H         1 <0>         0.0554 
      33 H3         3.8856    1.6267   10.1441 H         1 <0>         0.0557 
      34 H4         1.8448    1.9917    8.8025 H         1 <0>         0.0632 
      35 H5         2.1786    0.2555    8.9814 H         1 <0>         0.0635 
      36 H6         0.5515    0.1344   10.8431 H         1 <0>         0.0711 
      37 H7         0.2177    1.8707   10.6643 H         1 <0>         0.0704 
      38 H8        -0.1920   -0.2217    8.4876 H         1 <0>         0.0498 
      39 H9        -1.4814    0.4607    9.5024 H         1 <0>         0.0505 
      40 H10       -0.3394    3.2055    9.6256 H         1 <0>         0.0584 
      41 H11       -2.0303    2.7783    9.2847 H         1 <0>         0.0702 
      42 H12       -1.6695    4.9431    8.3060 H         1 <0>         0.0872 
      43 H13       -1.6820    3.7825    6.9604 H         1 <0>         0.0805 
      44 H14        0.5666    4.3277    6.5445 H         1 <0>         0.4058 
      45 H15        2.3235    6.1548    6.9945 H         1 <0>         0.1008 
      46 H16        2.7608    6.2964    8.7110 H         1 <0>         0.0999 
      47 H17        5.2877    2.7179    8.3229 H         1 <0>         0.1557 
      48 H18        6.4204    0.5460    7.6555 H         1 <0>         0.1929 
      49 H19        1.8135    2.2932    4.9765 H         1 <0>         0.4317 
      50 H20        1.5783   -1.2574    2.1925 H         1 <0>         0.1287 
      51 H21       -0.2315   -1.1452    0.5118 H         1 <0>         0.1326 
      52 H22       -1.5024    2.6126    2.1097 H         1 <0>         0.1342 
      53 H23        0.2015    2.4687    3.8509 H         1 <0>         0.1410 
      54 H24       -2.8753    1.3959    0.4629 H         1 <0>         0.0777 
      55 H25       -2.3236   -0.1616   -0.1909 H         1 <0>         0.0771 
      56 H26       -0.5902    0.9992   -1.5114 H         1 <0>         0.0623 
      57 H27       -1.1215    2.5591   -0.8465 H         1 <0>         0.0572 
      58 H28       -2.2057    1.6278   -1.9026 H         1 <0>         0.0578 
@<TRIPOS>BOND
       1        1        2 1        
       2        1       31 1        
       3        1       32 1        
       4        1       33 1        
       5        2        3 1        
       6        2       34 1        
       7        2       35 1        
       8        3        4 1        
       9        3       36 1        
      10        3       37 1        
      11        4        5 1        
      12        4       38 1        
      13        4       39 1        
      14        5        6 1        
      15        6        7 1        
      16        6       40 1        
      17        6       41 1        
      18        7        8 1        
      19        7       42 1        
      20        7       43 1        
      21        8        9 am       
      22        8       44 1        
      23        9       10 2        
      24        9       11 1        
      25       11       12 1        
      26       11       45 1        
      27       11       46 1        
      28       12       13 1        
      29       13       14 2        
      30       13       15 1        
      31       15       19 2        
      32       15       16 1        
      33       16       17 2        
      34       16       47 1        
      35       17       18 1        
      36       17       48 1        
      37       18       19 1        
      38       19       20 1        
      39       20       21 am       
      40       20       49 1        
      41       21       22 2        
      42       21       23 1        
      43       23       28 ar       
      44       23       24 ar       
      45       24       25 ar       
      46       24       50 1        
      47       25       26 ar       
      48       25       51 1        
      49       26       27 ar       
      50       26       29 1        
      51       27       28 ar       
      52       27       52 1        
      53       28       53 1        
      54       29       30 1        
      55       29       54 1        
      56       29       55 1        
      57       30       56 1        
      58       30       57 1        
      59       30       58 1        

