#        1GCZ_R01_S0001_C0000_L00014_S0001_C0050_G0010_E0001.mol2
#        Tue Jun  6 10:00:01 2017
#        Descriptor:      3    14    34     8     9    12
#        Energy - RMSD - RMSD MassCentre:     -61.9027    999.9999    999.9999
#        Receptor:       1  Surface Point:     1  Conformer:     0
#        Ligand:        14  Surface Point:     1  Conformer:    50
#        BUDE Formal Charge: 0
#        ATOM Count: 42
#        Heavy ATOM Count: 22
@<TRIPOS>MOLECULE
ZINC61597528_1GCZ_R01_S0001_C0000_L00014_S0001_C0050_G0010_E0001
 42 43 0 0 0
SMALL
USER_CHARGES
@<TRIPOS>ATOM
       1 C1         1.2878   -1.3639   -3.5514 C.3       1 <0>         0.0268 
       2 O1         1.7712   -0.8471   -2.3087 O.3       1 <0>        -0.3133 
       3 C2         0.8892   -0.1712   -1.5073 C.ar      1 <0>         0.1677 
       4 C3        -0.0126    0.6986   -2.1315 C.ar      1 <0>        -0.2433 
       5 C4        -0.9550    1.4256   -1.3989 C.ar      1 <0>        -0.0391 
       6 C5        -0.9984    1.2914   -0.0061 C.ar      1 <0>        -0.2473 
       7 C6        -0.0902    0.4387    0.6324 C.ar      1 <0>         0.1672 
       8 C7         0.8364   -0.2987   -0.1142 C.ar      1 <0>        -0.1836 
       9 O2        -0.1075    0.3255    1.9977 O.3       1 <0>        -0.2863 
      10 C8         1.1468    0.2580    2.6811 C.3       1 <0>         0.0425 
      11 C9         0.9037    0.1367    4.1664 C.2       1 <0>         0.5165 
      12 O3         1.1595   -0.9160    4.7484 O.2       1 <0>        -0.5075 
      13 N1         0.4125    1.1692    4.8460 N.am      1 <0>        -0.7277 
      14 C10        0.1758    1.0513    6.2919 C.3       1 <0>         0.0923 
      15 C11       -0.3865    2.3685    6.8243 C.3       1 <0>         0.1538 
      16 N2        -0.6231    2.2505    8.2703 N.pl3     1 <0>        -0.9868 
      17 C12       -1.7960    1.5666    8.8336 C.3       1 <0>         0.0701 
      18 C13       -1.4154    1.3805   10.3142 C.3       1 <0>        -0.1323 
      19 C14       -0.6718    2.6591   10.7431 C.3       1 <0>        -0.5903 
      20 S1         0.5096    2.9042    9.3939 S.o2      1 <0>         2.5602 
      21 O4         1.6085    1.9980    9.5223 O.2       1 <0>        -0.9507 
      22 O5         0.7021    4.2989    9.1429 O.2       1 <0>        -0.9534 
      23 H1         0.9303   -0.5434   -4.1701 H         1 <0>         0.1028 
      24 H2         2.0940   -1.8823   -4.0659 H         1 <0>         0.0577 
      25 H3         0.4720   -2.0582   -3.3619 H         1 <0>         0.0578 
      26 H4         0.0253    0.8086   -3.2052 H         1 <0>         0.1309 
      27 H5        -1.6432    2.0879   -1.9029 H         1 <0>         0.1300 
      28 H6        -1.7259    1.8398    0.5742 H         1 <0>         0.1298 
      29 H7         1.4889   -0.9531    0.4447 H         1 <0>         0.1413 
      30 H8         1.7190    1.1613    2.4804 H         1 <0>         0.0972 
      31 H9         1.7035   -0.6097    2.3334 H         1 <0>         0.0968 
      32 H10        0.2020    2.0343    4.3691 H         1 <0>         0.4034 
      33 H11        1.1136    0.8278    6.7964 H         1 <0>         0.0764 
      34 H12       -0.5373    0.2512    6.4793 H         1 <0>         0.0833 
      35 H13       -1.3248    2.5926    6.3210 H         1 <0>         0.0878 
      36 H14        0.3260    3.1693    6.6382 H         1 <0>         0.0899 
      37 H15       -2.6551    2.2257    8.7278 H         1 <0>         0.0810 
      38 H16       -2.0067    0.6149    8.3501 H         1 <0>         0.0967 
      39 H17       -0.7338    0.5374   10.4034 H         1 <0>         0.1151 
      40 H18       -2.2888    1.1922   10.9352 H         1 <0>         0.0972 
      41 H19       -1.3502    3.5094   10.7667 H         1 <0>         0.1443 
      42 H20       -0.1553    2.5717   11.6967 H         1 <0>         0.1447 
@<TRIPOS>BOND
       1        1        2 1        
       2        1       23 1        
       3        1       24 1        
       4        1       25 1        
       5        2        3 1        
       6        3        8 ar       
       7        3        4 ar       
       8        4        5 ar       
       9        4       26 1        
      10        5        6 ar       
      11        5       27 1        
      12        6        7 ar       
      13        6       28 1        
      14        7        8 ar       
      15        7        9 1        
      16        8       29 1        
      17        9       10 1        
      18       10       11 1        
      19       10       30 1        
      20       10       31 1        
      21       11       12 2        
      22       11       13 am       
      23       13       14 1        
      24       13       32 1        
      25       14       15 1        
      26       14       33 1        
      27       14       34 1        
      28       15       16 1        
      29       15       35 1        
      30       15       36 1        
      31       16       20 1        
      32       16       17 1        
      33       17       18 1        
      34       17       37 1        
      35       17       38 1        
      36       18       19 1        
      37       18       39 1        
      38       18       40 1        
      39       19       20 1        
      40       19       41 1        
      41       19       42 1        
      42       20       21 2        
      43       20       22 2        

