#        1GCZ_R01_S0001_C0000_L00014_S0001_C0050_G0010_E0001.mol2
#        Tue Jun  6 14:16:13 2017
#        Descriptor:     32    36     2    14    11    15
#        Energy - RMSD - RMSD MassCentre:     -50.5391    999.9999    999.9999
#        Receptor:       1  Surface Point:     1  Conformer:     0
#        Ligand:        14  Surface Point:     1  Conformer:    50
#        BUDE Formal Charge: 0
#        ATOM Count: 42
#        Heavy ATOM Count: 22
@<TRIPOS>MOLECULE
ZINC61597528_1GCZ_R01_S0001_C0000_L00014_S0001_C0050_G0010_E0001
 42 43 0 0 0
SMALL
USER_CHARGES
@<TRIPOS>ATOM
       1 C1        -1.2481    4.2009   10.2081 C.3       1 <0>         0.0268 
       2 O1        -0.4102    3.6125    9.2099 O.3       1 <0>        -0.3133 
       3 C2         0.7762    4.2331    8.9196 C.ar      1 <0>         0.1677 
       4 C3         0.7736    5.6315    8.8566 C.ar      1 <0>        -0.2433 
       5 C4         1.9365    6.3539    8.5749 C.ar      1 <0>        -0.0391 
       6 C5         3.1345    5.6684    8.3414 C.ar      1 <0>        -0.2473 
       7 C6         3.1470    4.2692    8.3834 C.ar      1 <0>         0.1672 
       8 C7         1.9799    3.5577    8.6855 C.ar      1 <0>        -0.1836 
       9 O2         4.3095    3.5911    8.1263 O.3       1 <0>        -0.2863 
      10 C8         4.2309    2.3997    7.3395 C.3       1 <0>         0.0425 
      11 C9         5.6128    1.8132    7.1766 C.2       1 <0>         0.5165 
      12 O3         5.9050    0.7595    7.7396 O.2       1 <0>        -0.5075 
      13 N1         6.5149    2.4367    6.4239 N.am      1 <0>        -0.7277 
      14 C10        7.8602    1.8658    6.2652 C.3       1 <0>         0.0923 
      15 C11        8.6930    2.7709    5.3586 C.3       1 <0>         0.1538 
      16 N2        10.0383    2.2000    5.2000 N.pl3     1 <0>        -0.9868 
      17 C12       11.0849    2.3276    6.2241 C.3       1 <0>         0.0701 
      18 C13       12.1328    1.2877    5.7856 C.3       1 <0>        -0.1323 
      19 C14       12.1929    1.3429    4.2477 C.3       1 <0>        -0.5903 
      20 S1        10.4448    1.3113    3.7794 S.o2      1 <0>         2.5602 
      21 O4         9.9206   -0.0139    3.8977 O.2       1 <0>        -0.9507 
      22 O5        10.2224    2.1140    2.6169 O.2       1 <0>        -0.9534 
      23 H1        -1.5336    5.2033    9.8962 H         1 <0>         0.1028 
      24 H2        -2.1407    3.5923   10.3362 H         1 <0>         0.0577 
      25 H3        -0.7064    4.2540   11.1501 H         1 <0>         0.0578 
      26 H4        -0.1518    6.1608    9.0291 H         1 <0>         0.1309 
      27 H5         1.9109    7.4328    8.5353 H         1 <0>         0.1300 
      28 H6         4.0438    6.2118    8.1304 H         1 <0>         0.1298 
      29 H7         2.0713    2.4823    8.7232 H         1 <0>         0.1413 
      30 H8         3.8208    2.6372    6.3603 H         1 <0>         0.0972 
      31 H9         3.5876    1.6773    7.8376 H         1 <0>         0.0968 
      32 H10        6.2761    3.3021    5.9611 H         1 <0>         0.4034 
      33 H11        7.7847    0.8767    5.8185 H         1 <0>         0.0764 
      34 H12        8.3394    1.7891    7.2390 H         1 <0>         0.0833 
      35 H13        8.7698    3.7602    5.8048 H         1 <0>         0.0878 
      36 H14        8.2151    2.8478    4.3842 H         1 <0>         0.0899 
      37 H15       11.4869    3.3373    6.1730 H         1 <0>         0.0810 
      38 H16       10.7214    2.1320    7.2309 H         1 <0>         0.0967 
      39 H17       11.7972    0.2967    6.0834 H         1 <0>         0.1151 
      40 H18       13.1046    1.4788    6.2362 H         1 <0>         0.0972 
      41 H19       12.6232    2.2844    3.9128 H         1 <0>         0.1443 
      42 H20       12.7282    0.5104    3.7958 H         1 <0>         0.1447 
@<TRIPOS>BOND
       1        1        2 1        
       2        1       23 1        
       3        1       24 1        
       4        1       25 1        
       5        2        3 1        
       6        3        8 ar       
       7        3        4 ar       
       8        4        5 ar       
       9        4       26 1        
      10        5        6 ar       
      11        5       27 1        
      12        6        7 ar       
      13        6       28 1        
      14        7        8 ar       
      15        7        9 1        
      16        8       29 1        
      17        9       10 1        
      18       10       11 1        
      19       10       30 1        
      20       10       31 1        
      21       11       12 2        
      22       11       13 am       
      23       13       14 1        
      24       13       32 1        
      25       14       15 1        
      26       14       33 1        
      27       14       34 1        
      28       15       16 1        
      29       15       35 1        
      30       15       36 1        
      31       16       20 1        
      32       16       17 1        
      33       17       18 1        
      34       17       37 1        
      35       17       38 1        
      36       18       19 1        
      37       18       39 1        
      38       18       40 1        
      39       19       20 1        
      40       19       41 1        
      41       19       42 1        
      42       20       21 2        
      43       20       22 2        

