#        1GCZ_R01_S0001_C0000_L00015_S0001_C0000_G0010_E0001.mol2
#        Tue Jun  6 10:00:01 2017
#        Descriptor:     18    31    27    15    10    13
#        Energy - RMSD - RMSD MassCentre:     -64.9087    999.9999    999.9999
#        Receptor:       1  Surface Point:     1  Conformer:     0
#        Ligand:        15  Surface Point:     1  Conformer:     0
#        BUDE Formal Charge: 0
#        ATOM Count: 53
#        Heavy ATOM Count: 29
@<TRIPOS>MOLECULE
ZINC61646583_1GCZ_R01_S0001_C0000_L00015_S0001_C0000_G0010_E0001
 53 54 0 0 0
SMALL
USER_CHARGES
@<TRIPOS>ATOM
       1 C1        -1.9850    1.8485    7.0927 C.3       1 <0>        -0.1727 
       2 C2        -0.4780    1.8404    7.0849 C.2       1 <0>         0.5094 
       3 O1         0.1239    0.8045    7.2748 O.2       1 <0>        -0.5291 
       4 N1         0.2010    2.9841    6.8669 N.am      1 <0>        -0.6649 
       5 C3         1.6011    2.9960    6.9539 C.ar      1 <0>         0.0992 
       6 C4         2.3309    1.8872    6.5514 C.ar      1 <0>        -0.0654 
       7 C5         3.7096    1.8981    6.6373 C.ar      1 <0>        -0.1341 
       8 C6         4.3679    3.0186    7.1266 C.ar      1 <0>         0.1883 
       9 C7         3.6414    4.1303    7.5305 C.ar      1 <0>        -0.2193 
      10 C8         2.2596    4.1236    7.4393 C.ar      1 <0>         0.1218 
      11 O2         1.5462    5.2136    7.8287 O.3       1 <0>        -0.3161 
      12 C9         2.2876    6.3338    8.3162 C.3       1 <0>         0.0284 
      13 N2         5.7662    3.0269    7.2131 N.am      1 <0>        -0.6855 
      14 C10        6.5030    2.3948    6.2781 C.2       1 <0>         0.7035 
      15 O3         5.9545    1.7485    5.4064 O.2       1 <0>        -0.5662 
      16 N3         7.8477    2.4791    6.3094 N.am      1 <0>        -0.7422 
      17 C11        8.6486    1.7921    5.2930 C.3       1 <0>         0.1412 
      18 C12       10.1340    2.0477    5.5556 C.3       1 <0>        -0.0858 
      19 C13       10.9578    1.3409    4.5101 C.ar      1 <0>        -0.1209 
      20 C14       11.3753    0.0403    4.7236 C.ar      1 <0>        -0.0699 
      21 C15       12.1310   -0.6096    3.7671 C.ar      1 <0>        -0.1435 
      22 C16       12.4705    0.0437    2.5912 C.ar      1 <0>         0.1285 
      23 C17       12.0499    1.3486    2.3793 C.ar      1 <0>        -0.2085 
      24 C18       11.2901    1.9923    3.3367 C.ar      1 <0>        -0.0706 
      25 O4        13.2141   -0.5934    1.6489 O.3       1 <0>        -0.2897 
      26 C19       13.5260    0.1407    0.4632 C.3       1 <0>         0.0392 
      27 C20       14.3502   -0.7207   -0.4587 C.2       1 <0>         0.5189 
      28 O5        14.6418   -1.8518   -0.1324 O.2       1 <0>        -0.5163 
      29 N4        14.7632   -0.2340   -1.6457 N.am      1 <0>        -0.8501 
      30 H1        -2.3528    0.8404    7.2834 H         1 <0>         0.0965 
      31 H2        -2.3406    2.5190    7.8750 H         1 <0>         0.0914 
      32 H3        -2.3515    2.1921    6.1254 H         1 <0>         0.0912 
      33 H4        -0.2785    3.7989    6.6499 H         1 <0>         0.4136 
      34 H5         1.8209    1.0146    6.1709 H         1 <0>         0.1501 
      35 H6         4.2762    1.0338    6.3237 H         1 <0>         0.1469 
      36 H7         4.1536    5.0015    7.9113 H         1 <0>         0.1349 
      37 H8         1.5993    7.1328    8.5918 H         1 <0>         0.1017 
      38 H9         2.8656    6.0344    9.1904 H         1 <0>         0.0561 
      39 H10        2.9633    6.6888    7.5380 H         1 <0>         0.0561 
      40 H11        6.2041    3.4876    7.9458 H         1 <0>         0.4065 
      41 H12        8.2853    2.9947    7.0047 H         1 <0>         0.3980 
      42 H13        8.4508    0.7211    5.3375 H         1 <0>         0.0719 
      43 H14        8.3839    2.1697    4.3054 H         1 <0>         0.0706 
      44 H15       10.3318    3.1187    5.5111 H         1 <0>         0.0792 
      45 H16       10.3987    1.6701    6.5432 H         1 <0>         0.0805 
      46 H17       11.1108   -0.4679    5.6392 H         1 <0>         0.1321 
      47 H18       12.4575   -1.6254    3.9346 H         1 <0>         0.1348 
      48 H19       12.3130    1.8594    1.4648 H         1 <0>         0.1285 
      49 H20       10.9588    3.0067    3.1702 H         1 <0>         0.1266 
      50 H21       12.6025    0.4297   -0.0385 H         1 <0>         0.0957 
      51 H22       14.0911    1.0345    0.7273 H         1 <0>         0.0953 
      52 H23       14.5299    0.6706   -1.9066 H         1 <0>         0.4036 
      53 H24       15.2937   -0.7884   -2.2390 H         1 <0>         0.4104 
@<TRIPOS>BOND
       1        1        2 1        
       2        1       30 1        
       3        1       31 1        
       4        1       32 1        
       5        2        3 2        
       6        2        4 am       
       7        4        5 1        
       8        4       33 1        
       9        5       10 ar       
      10        5        6 ar       
      11        6        7 ar       
      12        6       34 1        
      13        7        8 ar       
      14        7       35 1        
      15        8        9 ar       
      16        8       13 1        
      17        9       10 ar       
      18        9       36 1        
      19       10       11 1        
      20       11       12 1        
      21       12       37 1        
      22       12       38 1        
      23       12       39 1        
      24       13       14 am       
      25       13       40 1        
      26       14       15 2        
      27       14       16 am       
      28       16       17 1        
      29       16       41 1        
      30       17       18 1        
      31       17       42 1        
      32       17       43 1        
      33       18       19 1        
      34       18       44 1        
      35       18       45 1        
      36       19       24 ar       
      37       19       20 ar       
      38       20       21 ar       
      39       20       46 1        
      40       21       22 ar       
      41       21       47 1        
      42       22       23 ar       
      43       22       25 1        
      44       23       24 ar       
      45       23       48 1        
      46       24       49 1        
      47       25       26 1        
      48       26       27 1        
      49       26       50 1        
      50       26       51 1        
      51       27       28 2        
      52       27       29 am       
      53       29       52 1        
      54       29       53 1        

