#        1GCZ_R01_S0001_C0000_L00015_S0001_C0000_G0010_E0001.mol2
#        Tue Jun  6 14:16:15 2017
#        Descriptor:     19    30    29    15    10    13
#        Energy - RMSD - RMSD MassCentre:     -63.9979    999.9999    999.9999
#        Receptor:       1  Surface Point:     1  Conformer:     0
#        Ligand:        15  Surface Point:     1  Conformer:     0
#        BUDE Formal Charge: 0
#        ATOM Count: 53
#        Heavy ATOM Count: 29
@<TRIPOS>MOLECULE
ZINC61646583_1GCZ_R01_S0001_C0000_L00015_S0001_C0000_G0010_E0001
 53 54 0 0 0
SMALL
USER_CHARGES
@<TRIPOS>ATOM
       1 C1        -1.8467   -0.3070    6.2434 C.3       1 <0>        -0.1727 
       2 C2        -0.3725   -0.0187    6.3651 C.2       1 <0>         0.5094 
       3 O1         0.4221   -0.9337    6.4175 O.2       1 <0>        -0.5291 
       4 N1         0.0630    1.2558    6.4157 N.am      1 <0>        -0.6649 
       5 C3         1.4240    1.5241    6.6247 C.ar      1 <0>         0.0992 
       6 C4         2.3874    0.6787    6.0946 C.ar      1 <0>        -0.0654 
       7 C5         3.7278    0.9420    6.3004 C.ar      1 <0>        -0.1341 
       8 C6         4.1137    2.0535    7.0381 C.ar      1 <0>         0.1883 
       9 C7         3.1528    2.9022    7.5704 C.ar      1 <0>        -0.2193 
      10 C8         1.8088    2.6431    7.3598 C.ar      1 <0>         0.1218 
      11 O2         0.8659    3.4763    7.8752 O.3       1 <0>        -0.3161 
      12 C9         1.3331    4.6040    8.6183 C.3       1 <0>         0.0284 
      13 N2         5.4737    2.3181    7.2458 N.am      1 <0>        -0.6855 
      14 C10        6.3704    2.0352    6.2801 C.2       1 <0>         0.7035 
      15 O3         6.0115    1.4752    5.2623 O.2       1 <0>        -0.5662 
      16 N3         7.6649    2.3732    6.4427 N.am      1 <0>        -0.7422 
      17 C11        8.6396    2.0658    5.3929 C.3       1 <0>         0.1412 
      18 C12       10.0246    2.5511    5.8251 C.3       1 <0>        -0.0858 
      19 C13       11.0272    2.2349    4.7453 C.ar      1 <0>        -0.1209 
      20 C14       11.6958    1.0247    4.7574 C.ar      1 <0>        -0.0699 
      21 C15       12.6157    0.7326    3.7690 C.ar      1 <0>        -0.1435 
      22 C16       12.8681    1.6545    2.7635 C.ar      1 <0>         0.1285 
      23 C17       12.1955    2.8679    2.7534 C.ar      1 <0>        -0.2085 
      24 C18       11.2729    3.1531    3.7412 C.ar      1 <0>        -0.0706 
      25 O4        13.7728    1.3696    1.7903 O.3       1 <0>        -0.2897 
      26 C19       13.9819    2.3657    0.7872 C.3       1 <0>         0.0392 
      27 C20       15.0111    1.8770   -0.1992 C.2       1 <0>         0.5189 
      28 O5        15.5159    0.7834   -0.0571 O.2       1 <0>        -0.5163 
      29 N4        15.3706    2.6552   -1.2392 N.am      1 <0>        -0.8501 
      30 H1        -2.0051   -1.3851    6.2174 H         1 <0>         0.0965 
      31 H2        -2.3716    0.1168    7.0994 H         1 <0>         0.0914 
      32 H3        -2.2295    0.1388    5.3253 H         1 <0>         0.0912 
      33 H4        -0.5647    1.9874    6.3077 H         1 <0>         0.4136 
      34 H5         2.0895   -0.1865    5.5208 H         1 <0>         0.1501 
      35 H6         4.4765    0.2825    5.8872 H         1 <0>         0.1469 
      36 H7         3.4532    3.7662    8.1444 H         1 <0>         0.1349 
      37 H8         0.4810    5.1843    8.9720 H         1 <0>         0.1017 
      38 H9         1.9179    4.2601    9.4714 H         1 <0>         0.0561 
      39 H10        1.9569    5.2279    7.9780 H         1 <0>         0.0561 
      40 H11        5.7700    2.7049    8.0845 H         1 <0>         0.4065 
      41 H12        7.9513    2.8199    7.2546 H         1 <0>         0.3980 
      42 H13        8.6674    0.9888    5.2272 H         1 <0>         0.0719 
      43 H14        8.3501    2.5681    4.4700 H         1 <0>         0.0706 
      44 H15        9.9968    3.6281    5.9909 H         1 <0>         0.0792 
      45 H16       10.3141    2.0488    6.7481 H         1 <0>         0.0805 
      46 H17       11.4990    0.3073    5.5404 H         1 <0>         0.1321 
      47 H18       13.1382   -0.2126    3.7792 H         1 <0>         0.1348 
      48 H19       12.3904    3.5873    1.9718 H         1 <0>         0.1285 
      49 H20       10.7459    4.0957    3.7314 H         1 <0>         0.1266 
      50 H21       13.0438    2.5601    0.2672 H         1 <0>         0.0957 
      51 H22       14.3349    3.2844    1.2555 H         1 <0>         0.0953 
      52 H23       14.9668    3.5298   -1.3528 H         1 <0>         0.4036 
      53 H24       16.0330    2.3406   -1.8741 H         1 <0>         0.4104 
@<TRIPOS>BOND
       1        1        2 1        
       2        1       30 1        
       3        1       31 1        
       4        1       32 1        
       5        2        3 2        
       6        2        4 am       
       7        4        5 1        
       8        4       33 1        
       9        5       10 ar       
      10        5        6 ar       
      11        6        7 ar       
      12        6       34 1        
      13        7        8 ar       
      14        7       35 1        
      15        8        9 ar       
      16        8       13 1        
      17        9       10 ar       
      18        9       36 1        
      19       10       11 1        
      20       11       12 1        
      21       12       37 1        
      22       12       38 1        
      23       12       39 1        
      24       13       14 am       
      25       13       40 1        
      26       14       15 2        
      27       14       16 am       
      28       16       17 1        
      29       16       41 1        
      30       17       18 1        
      31       17       42 1        
      32       17       43 1        
      33       18       19 1        
      34       18       44 1        
      35       18       45 1        
      36       19       24 ar       
      37       19       20 ar       
      38       20       21 ar       
      39       20       46 1        
      40       21       22 ar       
      41       21       47 1        
      42       22       23 ar       
      43       22       25 1        
      44       23       24 ar       
      45       23       48 1        
      46       24       49 1        
      47       25       26 1        
      48       26       27 1        
      49       26       50 1        
      50       26       51 1        
      51       27       28 2        
      52       27       29 am       
      53       29       52 1        
      54       29       53 1        

