#        1GCZ_R01_S0001_C0000_L00015_S0001_C0001_G0010_E0001.mol2
#        Tue Jun  6 10:00:02 2017
#        Descriptor:     22    23    33    10     7    11
#        Energy - RMSD - RMSD MassCentre:     -68.5224    999.9999    999.9999
#        Receptor:       1  Surface Point:     1  Conformer:     0
#        Ligand:        15  Surface Point:     1  Conformer:     1
#        BUDE Formal Charge: 0
#        ATOM Count: 53
#        Heavy ATOM Count: 29
@<TRIPOS>MOLECULE
ZINC61646583_1GCZ_R01_S0001_C0000_L00015_S0001_C0001_G0010_E0001
 53 54 0 0 0
SMALL
USER_CHARGES
@<TRIPOS>ATOM
       1 C1         8.2318   -4.4410    7.0254 C.3       1 <0>        -0.1727 
       2 C2         7.3798   -3.3644    6.3967 C.2       1 <0>         0.5094 
       3 O1         7.9031   -2.4848    5.7147 O.2       1 <0>        -0.5291 
       4 N1         6.0626   -3.3673    6.5807 N.am      1 <0>        -0.6649 
       5 C3         5.2643   -2.3584    5.9916 C.ar      1 <0>         0.0992 
       6 C4         5.8242   -1.3461    5.1990 C.ar      1 <0>        -0.0654 
       7 C5         5.0237   -0.2973    4.7310 C.ar      1 <0>        -0.1341 
       8 C6         3.6404   -0.3187    4.9455 C.ar      1 <0>         0.1883 
       9 C7         3.0836   -1.3465    5.7158 C.ar      1 <0>        -0.2193 
      10 C8         3.8808   -2.3887    6.2036 C.ar      1 <0>         0.1218 
      11 O2         3.3757   -3.4521    6.9042 O.3       1 <0>        -0.3161 
      12 C9         2.1366   -4.0161    6.4665 C.3       1 <0>         0.0284 
      13 N2         2.8255    0.6763    4.3554 N.am      1 <0>        -0.6855 
      14 C10        1.5104    0.6638    4.5535 C.2       1 <0>         0.7035 
      15 O3         0.9940   -0.2275    5.2616 O.2       1 <0>        -0.5662 
      16 N3         0.7457    1.5998    3.9983 N.am      1 <0>        -0.7422 
      17 C11       -0.7077    1.5860    4.2175 C.3       1 <0>         0.1412 
      18 C12       -1.2990    0.3074    3.6253 C.3       1 <0>        -0.0858 
      19 C13       -1.0765    0.2957    2.1319 C.ar      1 <0>        -0.1209 
      20 C14       -2.0232    0.8571    1.2668 C.ar      1 <0>        -0.0699 
      21 C15       -1.8005    0.8792   -0.1154 C.ar      1 <0>        -0.1435 
      22 C16       -0.6395    0.3138   -0.6470 C.ar      1 <0>         0.1285 
      23 C17        0.3019   -0.2683    0.2102 C.ar      1 <0>        -0.2085 
      24 C18        0.0839   -0.2731    1.5933 C.ar      1 <0>        -0.0706 
      25 O4        -0.4264    0.3328   -2.0001 O.3       1 <0>        -0.2897 
      26 C19        0.1319   -0.8351   -2.6077 C.3       1 <0>         0.0392 
      27 C20        0.2836   -0.6054   -4.0924 C.2       1 <0>         0.5189 
      28 O5         1.3984   -0.4069   -4.5728 O.2       1 <0>        -0.5163 
      29 N4        -0.7883   -0.6178   -4.8797 N.am      1 <0>        -0.8501 
      30 H1         7.5929   -5.1462    7.5530 H         1 <0>         0.0965 
      31 H2         8.7859   -4.9639    6.2485 H         1 <0>         0.0914 
      32 H3         8.9291   -3.9876    7.7265 H         1 <0>         0.0912 
      33 H4         5.6318   -4.0891    7.1405 H         1 <0>         0.4136 
      34 H5         6.8716   -1.3576    4.9355 H         1 <0>         0.1501 
      35 H6         5.4715    0.5238    4.1909 H         1 <0>         0.1469 
      36 H7         2.0175   -1.3093    5.8843 H         1 <0>         0.1349 
      37 H8         2.2469   -4.3869    5.4496 H         1 <0>         0.1017 
      38 H9         1.8600   -4.8371    7.1246 H         1 <0>         0.0561 
      39 H10        1.3620   -3.2526    6.4929 H         1 <0>         0.0561 
      40 H11        3.2428    1.3964    3.7833 H         1 <0>         0.4065 
      41 H12        1.1641    2.3195    3.4265 H         1 <0>         0.3980 
      42 H13       -1.1551    2.4514    3.7330 H         1 <0>         0.0719 
      43 H14       -0.9133    1.6207    5.2853 H         1 <0>         0.0706 
      44 H15       -2.3662    0.2718    3.8340 H         1 <0>         0.0792 
      45 H16       -0.8124   -0.5570    4.0720 H         1 <0>         0.0805 
      46 H17       -2.9374    1.2829    1.6531 H         1 <0>         0.1321 
      47 H18       -2.5253    1.3259   -0.7798 H         1 <0>         0.1348 
      48 H19        1.1977   -0.7099   -0.2008 H         1 <0>         0.1285 
      49 H20        0.8268   -0.7241    2.2343 H         1 <0>         0.1266 
      50 H21       -0.5283   -1.6828   -2.4369 H         1 <0>         0.0957 
      51 H22        1.1068   -1.0399   -2.1704 H         1 <0>         0.0953 
      52 H23       -0.6868   -0.4641   -5.8728 H         1 <0>         0.4036 
      53 H24       -1.7032   -0.7807   -4.4841 H         1 <0>         0.4104 
@<TRIPOS>BOND
       1        1        2 1        
       2        1       30 1        
       3        1       31 1        
       4        1       32 1        
       5        2        3 2        
       6        2        4 am       
       7        4        5 1        
       8        4       33 1        
       9        5       10 ar       
      10        5        6 ar       
      11        6        7 ar       
      12        6       34 1        
      13        7        8 ar       
      14        7       35 1        
      15        8        9 ar       
      16        8       13 1        
      17        9       10 ar       
      18        9       36 1        
      19       10       11 1        
      20       11       12 1        
      21       12       37 1        
      22       12       38 1        
      23       12       39 1        
      24       13       14 am       
      25       13       40 1        
      26       14       15 2        
      27       14       16 am       
      28       16       17 1        
      29       16       41 1        
      30       17       18 1        
      31       17       42 1        
      32       17       43 1        
      33       18       19 1        
      34       18       44 1        
      35       18       45 1        
      36       19       24 ar       
      37       19       20 ar       
      38       20       21 ar       
      39       20       46 1        
      40       21       22 ar       
      41       21       47 1        
      42       22       23 ar       
      43       22       25 1        
      44       23       24 ar       
      45       23       48 1        
      46       24       49 1        
      47       25       26 1        
      48       26       27 1        
      49       26       50 1        
      50       26       51 1        
      51       27       28 2        
      52       27       29 am       
      53       29       52 1        
      54       29       53 1        

