#        1GCZ_R01_S0001_C0000_L00015_S0001_C0003_G0010_E0001.mol2
#        Tue Jun  6 14:16:21 2017
#        Descriptor:      5    16    16    15     9    13
#        Energy - RMSD - RMSD MassCentre:     -60.8969    999.9999    999.9999
#        Receptor:       1  Surface Point:     1  Conformer:     0
#        Ligand:        15  Surface Point:     1  Conformer:     3
#        BUDE Formal Charge: 0
#        ATOM Count: 53
#        Heavy ATOM Count: 29
@<TRIPOS>MOLECULE
ZINC61646583_1GCZ_R01_S0001_C0000_L00015_S0001_C0003_G0010_E0001
 53 54 0 0 0
SMALL
USER_CHARGES
@<TRIPOS>ATOM
       1 C1        -2.1213    3.0535    7.7427 C.3       1 <0>        -0.1727 
       2 C2        -0.6138    3.1415    7.7399 C.2       1 <0>         0.5094 
       3 O1        -0.0411    3.9228    8.4978 O.2       1 <0>        -0.5291 
       4 N1         0.0952    2.3738    6.9173 N.am      1 <0>        -0.6649 
       5 C3         1.5077    2.4563    6.9146 C.ar      1 <0>         0.0992 
       6 C4         2.1956    3.3269    7.7720 C.ar      1 <0>        -0.0654 
       7 C5         3.5836    3.4710    7.6604 C.ar      1 <0>        -0.1341 
       8 C6         4.3066    2.6572    6.7802 C.ar      1 <0>         0.1883 
       9 C7         3.6161    1.7709    5.9450 C.ar      1 <0>        -0.2193 
      10 C8         2.2259    1.6351    6.0372 C.ar      1 <0>         0.1218 
      11 O2         1.5109    0.7354    5.2915 O.3       1 <0>        -0.3161 
      12 C9         2.0666   -0.5680    5.0989 C.3       1 <0>         0.0284 
      13 N2         5.7202    2.7189    6.7714 N.am      1 <0>        -0.6855 
      14 C10        6.4153    1.9493    5.9387 C.2       1 <0>         0.7035 
      15 O3         5.8193    1.1710    5.1630 O.2       1 <0>        -0.5662 
      16 N3         7.7440    2.0085    5.9315 N.am      1 <0>        -0.7422 
      17 C11        8.5121    1.1580    5.0110 C.3       1 <0>         0.1412 
      18 C12       10.0052    1.4189    5.2043 C.3       1 <0>        -0.0858 
      19 C13       10.7944    0.5451    4.2588 C.ar      1 <0>        -0.1209 
      20 C14       11.2049   -0.7355    4.6480 C.ar      1 <0>        -0.0699 
      21 C15       11.9049   -1.5600    3.7590 C.ar      1 <0>        -0.1435 
      22 C16       12.2250   -1.0990    2.4802 C.ar      1 <0>         0.1285 
      23 C17       11.8363    0.1885    2.0913 C.ar      1 <0>        -0.2085 
      24 C18       11.1213    1.0036    2.9769 C.ar      1 <0>        -0.0706 
      25 O4        12.9140   -1.9064    1.6141 O.3       1 <0>        -0.2897 
      26 C19       13.9340   -1.3100    0.8086 C.3       1 <0>         0.0392 
      27 C20       14.9977   -0.7180    1.7019 C.2       1 <0>         0.5189 
      28 O5        15.0690    0.5013    1.8478 O.2       1 <0>        -0.5163 
      29 N4        15.8569   -1.5153    2.3305 N.am      1 <0>        -0.8501 
      30 H1        -2.4404    2.2860    7.0407 H         1 <0>         0.0965 
      31 H2        -2.4671    2.7980    8.7422 H         1 <0>         0.0914 
      32 H3        -2.5405    4.0129    7.4475 H         1 <0>         0.0912 
      33 H4        -0.3740    1.7319    6.2944 H         1 <0>         0.4136 
      34 H5         1.6735    3.8948    8.5281 H         1 <0>         0.1501 
      35 H6         4.1007    4.2017    8.2647 H         1 <0>         0.1469 
      36 H7         4.2079    1.1839    5.2582 H         1 <0>         0.1349 
      37 H8         2.1937   -1.0536    6.0642 H         1 <0>         0.1017 
      38 H9         1.3956   -1.1599    4.4800 H         1 <0>         0.0561 
      39 H10        3.0327   -0.4805    4.6062 H         1 <0>         0.0561 
      40 H11        6.2017    3.3478    7.3981 H         1 <0>         0.4065 
      41 H12        8.2244    2.6379    6.5585 H         1 <0>         0.3980 
      42 H13        8.2325    1.3898    3.9855 H         1 <0>         0.0719 
      43 H14        8.2961    0.1122    5.2190 H         1 <0>         0.0706 
      44 H15       10.2833    1.1875    6.2304 H         1 <0>         0.0792 
      45 H16       10.2198    2.4650    4.9968 H         1 <0>         0.0805 
      46 H17       10.9857   -1.1062    5.6383 H         1 <0>         0.1321 
      47 H18       12.2079   -2.5531    4.0561 H         1 <0>         0.1348 
      48 H19       12.0878    0.5471    1.1042 H         1 <0>         0.1285 
      49 H20       10.8285    1.9912    2.6524 H         1 <0>         0.1266 
      50 H21       13.4975   -0.5253    0.1942 H         1 <0>         0.0957 
      51 H22       14.3787   -2.0683    0.1675 H         1 <0>         0.0953 
      52 H23       15.7973   -2.5162    2.2100 H         1 <0>         0.4036 
      53 H24       16.5682   -1.1193    2.9282 H         1 <0>         0.4104 
@<TRIPOS>BOND
       1        1        2 1        
       2        1       30 1        
       3        1       31 1        
       4        1       32 1        
       5        2        3 2        
       6        2        4 am       
       7        4        5 1        
       8        4       33 1        
       9        5       10 ar       
      10        5        6 ar       
      11        6        7 ar       
      12        6       34 1        
      13        7        8 ar       
      14        7       35 1        
      15        8        9 ar       
      16        8       13 1        
      17        9       10 ar       
      18        9       36 1        
      19       10       11 1        
      20       11       12 1        
      21       12       37 1        
      22       12       38 1        
      23       12       39 1        
      24       13       14 am       
      25       13       40 1        
      26       14       15 2        
      27       14       16 am       
      28       16       17 1        
      29       16       41 1        
      30       17       18 1        
      31       17       42 1        
      32       17       43 1        
      33       18       19 1        
      34       18       44 1        
      35       18       45 1        
      36       19       24 ar       
      37       19       20 ar       
      38       20       21 ar       
      39       20       46 1        
      40       21       22 ar       
      41       21       47 1        
      42       22       23 ar       
      43       22       25 1        
      44       23       24 ar       
      45       23       48 1        
      46       24       49 1        
      47       25       26 1        
      48       26       27 1        
      49       26       50 1        
      50       26       51 1        
      51       27       28 2        
      52       27       29 am       
      53       29       52 1        
      54       29       53 1        

