#        1GCZ_R01_S0001_C0000_L00003_S0001_C0028_G0010_E0001.mol2
#        Tue Jun  6 14:04:23 2017
#        Descriptor:     20    24    19    10    10    14
#        Energy - RMSD - RMSD MassCentre:     -65.5643    999.9999    999.9999
#        Receptor:       1  Surface Point:     1  Conformer:     0
#        Ligand:         3  Surface Point:     1  Conformer:    28
#        BUDE Formal Charge: 0
#        ATOM Count: 58
#        Heavy ATOM Count: 30
@<TRIPOS>MOLECULE
ZINC61580633_1GCZ_R01_S0001_C0000_L00003_S0001_C0028_G0010_E0001
 58 59 0 0 0
SMALL
USER_CHARGES
@<TRIPOS>ATOM
       1 C1         4.0056    1.8793   10.5841 C.3       1 <0>        -0.1532 
       2 C2         2.8406    1.7502    9.6071 C.3       1 <0>        -0.1224 
       3 C3         1.5648    2.2744   10.2647 C.3       1 <0>        -0.1198 
       4 C4         0.3983    2.1450    9.2863 C.3       1 <0>         0.0610 
       5 O1         0.6455    2.9636    8.1402 O.3       1 <0>        -0.3878 
       6 C5         0.7692    4.3455    8.4867 C.3       1 <0>         0.0487 
       7 C6         1.0316    5.1648    7.2239 C.3       1 <0>         0.1244 
       8 N1         2.4005    4.9111    6.7520 N.am      1 <0>        -0.7216 
       9 C7         3.4371    5.4024    7.4249 C.2       1 <0>         0.5161 
      10 O2         3.2514    6.0687    8.4417 O.2       1 <0>        -0.5151 
      11 C8         4.8433    5.1418    6.9400 C.3       1 <0>         0.0490 
      12 O3         5.1628    3.7605    7.1270 O.3       1 <0>        -0.3194 
      13 C9         4.4376    2.8454    6.4494 C.2       1 <0>         0.5417 
      14 O4         3.5410    3.2063    5.7048 O.2       1 <0>        -0.5337 
      15 C10        4.7303    1.4037    6.6097 C.2       1 <0>        -0.2559 
      16 C11        5.8012    0.8589    7.4740 C.2       1 <0>        -0.0791 
      17 C12        5.8625   -0.4739    7.4289 C.2       1 <0>        -0.2585 
      18 S1         4.6431   -1.1775    6.3563 S.3       1 <0>         0.3028 
      19 C13        4.0501    0.4442    5.9678 C.2       1 <0>         0.0893 
      20 N2         3.0232    0.7294    5.1069 N.am      1 <0>        -0.6099 
      21 C14        2.3766   -0.2567    4.4918 C.2       1 <0>         0.5551 
      22 O5         2.7006   -1.4256    4.6962 O.2       1 <0>        -0.4939 
      23 C15        1.2675    0.0531    3.5622 C.ar      1 <0>        -0.1466 
      24 C16        0.6163   -1.0154    2.9340 C.ar      1 <0>        -0.0772 
      25 C17       -0.3902   -0.7830    1.9893 C.ar      1 <0>        -0.1241 
      26 C18       -0.7576    0.5236    1.6473 C.ar      1 <0>        -0.0446 
      27 C19       -0.1456    1.5928    2.3124 C.ar      1 <0>        -0.1261 
      28 C20        0.8401    1.3555    3.2778 C.ar      1 <0>        -0.0460 
      29 C21       -1.8018    0.7538    0.5809 C.3       1 <0>        -0.0928 
      30 C22       -1.1214    0.8647   -0.7804 C.3       1 <0>        -0.1485 
      31 H1         3.7992    1.2879   11.4737 H         1 <0>         0.0567 
      32 H2         4.1300    2.9236   10.8631 H         1 <0>         0.0554 
      33 H3         4.9165    1.5186   10.1112 H         1 <0>         0.0557 
      34 H4         3.0513    2.3312    8.7116 H         1 <0>         0.0632 
      35 H5         2.7060    0.7046    9.3383 H         1 <0>         0.0635 
      36 H6         1.3526    1.6937   11.1599 H         1 <0>         0.0711 
      37 H7         1.6979    3.3204   10.5332 H         1 <0>         0.0704 
      38 H8         0.2983    1.1072    8.9753 H         1 <0>         0.0498 
      39 H9        -0.5201    2.4691    9.7713 H         1 <0>         0.0505 
      40 H10        1.5978    4.4735    9.1800 H         1 <0>         0.0584 
      41 H11       -0.1519    4.6866    8.9546 H         1 <0>         0.0702 
      42 H12        0.9160    6.2233    7.4471 H         1 <0>         0.0872 
      43 H13        0.3229    4.8770    6.4504 H         1 <0>         0.0805 
      44 H14        2.5542    4.3640    5.9170 H         1 <0>         0.4058 
      45 H15        4.9151    5.3900    5.8832 H         1 <0>         0.1008 
      46 H16        5.5420    5.7546    7.5055 H         1 <0>         0.0999 
      47 H17        6.4416    1.4875    8.0749 H         1 <0>         0.1557 
      48 H18        6.5766   -1.0467    8.0018 H         1 <0>         0.1929 
      49 H19        2.7572    1.6891    4.9391 H         1 <0>         0.4317 
      50 H20        0.8948   -2.0304    3.1758 H         1 <0>         0.1287 
      51 H21       -0.8898   -1.6152    1.5158 H         1 <0>         0.1326 
      52 H22       -0.4473    2.6018    2.0732 H         1 <0>         0.1342 
      53 H23        1.2338    2.2153    3.7994 H         1 <0>         0.1410 
      54 H24       -2.3401    1.6749    0.7943 H         1 <0>         0.0777 
      55 H25       -2.4997   -0.0808    0.5715 H         1 <0>         0.0771 
      56 H26       -0.5940   -0.0616   -0.9980 H         1 <0>         0.0623 
      57 H27       -0.4136    1.6908   -0.7652 H         1 <0>         0.0572 
      58 H28       -1.8725    1.0439   -1.5469 H         1 <0>         0.0578 
@<TRIPOS>BOND
       1        1        2 1        
       2        1       31 1        
       3        1       32 1        
       4        1       33 1        
       5        2        3 1        
       6        2       34 1        
       7        2       35 1        
       8        3        4 1        
       9        3       36 1        
      10        3       37 1        
      11        4        5 1        
      12        4       38 1        
      13        4       39 1        
      14        5        6 1        
      15        6        7 1        
      16        6       40 1        
      17        6       41 1        
      18        7        8 1        
      19        7       42 1        
      20        7       43 1        
      21        8        9 am       
      22        8       44 1        
      23        9       10 2        
      24        9       11 1        
      25       11       12 1        
      26       11       45 1        
      27       11       46 1        
      28       12       13 1        
      29       13       14 2        
      30       13       15 1        
      31       15       19 2        
      32       15       16 1        
      33       16       17 2        
      34       16       47 1        
      35       17       18 1        
      36       17       48 1        
      37       18       19 1        
      38       19       20 1        
      39       20       21 am       
      40       20       49 1        
      41       21       22 2        
      42       21       23 1        
      43       23       28 ar       
      44       23       24 ar       
      45       24       25 ar       
      46       24       50 1        
      47       25       26 ar       
      48       25       51 1        
      49       26       27 ar       
      50       26       29 1        
      51       27       28 ar       
      52       27       52 1        
      53       28       53 1        
      54       29       30 1        
      55       29       54 1        
      56       29       55 1        
      57       30       56 1        
      58       30       57 1        
      59       30       58 1        

