#        1GCZ_R01_S0001_C0000_L00015_S0001_C0004_G0010_E0001.mol2
#        Tue Jun  6 10:00:05 2017
#        Descriptor:     33    36    14    15     9    13
#        Energy - RMSD - RMSD MassCentre:     -63.7287    999.9999    999.9999
#        Receptor:       1  Surface Point:     1  Conformer:     0
#        Ligand:        15  Surface Point:     1  Conformer:     4
#        BUDE Formal Charge: 0
#        ATOM Count: 53
#        Heavy ATOM Count: 29
@<TRIPOS>MOLECULE
ZINC61646583_1GCZ_R01_S0001_C0000_L00015_S0001_C0004_G0010_E0001
 53 54 0 0 0
SMALL
USER_CHARGES
@<TRIPOS>ATOM
       1 C1        16.4634    0.1804    2.8298 C.3       1 <0>        -0.1727 
       2 C2        15.2310    0.7371    3.5018 C.2       1 <0>         0.5094 
       3 O1        15.3334    1.6584    4.3101 O.2       1 <0>        -0.5291 
       4 N1        14.0340    0.2307    3.2195 N.am      1 <0>        -0.6649 
       5 C3        12.8793    0.7523    3.8492 C.ar      1 <0>         0.0992 
       6 C4        12.9559    1.8094    4.7674 C.ar      1 <0>        -0.0654 
       7 C5        11.8116    2.2211    5.4610 C.ar      1 <0>        -0.1341 
       8 C6        10.5641    1.6661    5.1519 C.ar      1 <0>         0.1883 
       9 C7        10.4905    0.6286    4.2149 C.ar      1 <0>        -0.2193 
      10 C8        11.6336    0.1981    3.5311 C.ar      1 <0>         0.1218 
      11 O2        11.6048   -0.7655    2.5577 O.3       1 <0>        -0.3161 
      12 C9        10.5188   -0.7470    1.6276 C.3       1 <0>         0.0284 
      13 N2         9.3976    2.1823    5.7642 N.am      1 <0>        -0.6855 
      14 C10        8.2082    1.6614    5.4765 C.2       1 <0>         0.7035 
      15 O3         8.1208    0.7149    4.6646 O.2       1 <0>        -0.5662 
      16 N3         7.1126    2.1476    6.0529 N.am      1 <0>        -0.7422 
      17 C11        5.7981    1.5717    5.7350 C.3       1 <0>         0.1412 
      18 C12        4.7166    2.3064    6.5257 C.3       1 <0>        -0.0858 
      19 C13        3.3661    1.7149    6.1990 C.ar      1 <0>        -0.1209 
      20 C14        2.6057    2.2200    5.1376 C.ar      1 <0>        -0.0699 
      21 C15        1.3701    1.6482    4.8113 C.ar      1 <0>        -0.1435 
      22 C16        0.8710    0.5823    5.5629 C.ar      1 <0>         0.1285 
      23 C17        1.6161    0.0856    6.6390 C.ar      1 <0>        -0.2085 
      24 C18        2.8593    0.6486    6.9515 C.ar      1 <0>        -0.0706 
      25 O4        -0.3404    0.0278    5.2439 O.3       1 <0>        -0.2897 
      26 C19       -1.2135   -0.3383    6.3157 C.3       1 <0>         0.0392 
      27 C20       -1.5599    0.8896    7.1234 C.2       1 <0>         0.5189 
      28 O5        -1.0530    1.0597    8.2312 O.2       1 <0>        -0.5163 
      29 N4        -2.4128    1.7866    6.6365 N.am      1 <0>        -0.8501 
      30 H1        16.1720   -0.5950    2.1243 H         1 <0>         0.0965 
      31 H2        16.9785    0.9788    2.2996 H         1 <0>         0.0914 
      32 H3        17.1258   -0.2428    3.5817 H         1 <0>         0.0912 
      33 H4        13.9487   -0.5260    2.5560 H         1 <0>         0.4136 
      34 H5        13.8883    2.3218    4.9531 H         1 <0>         0.1501 
      35 H6        11.8882    2.9788    6.2268 H         1 <0>         0.1469 
      36 H7         9.5143    0.2062    4.0280 H         1 <0>         0.1349 
      37 H8        10.5267    0.1934    1.0805 H         1 <0>         0.1017 
      38 H9        10.6260   -1.5745    0.9294 H         1 <0>         0.0561 
      39 H10        9.5789   -0.8460    2.1666 H         1 <0>         0.0561 
      40 H11        9.4683    2.9470    6.4202 H         1 <0>         0.4065 
      41 H12        7.1845    2.9122    6.7088 H         1 <0>         0.3980 
      42 H13        5.7906    0.5172    6.0023 H         1 <0>         0.0719 
      43 H14        5.6046    1.6779    4.6696 H         1 <0>         0.0706 
      44 H15        4.7256    3.3609    6.2581 H         1 <0>         0.0792 
      45 H16        4.9116    2.2001    7.5907 H         1 <0>         0.0805 
      46 H17        2.9622    3.0560    4.5544 H         1 <0>         0.1321 
      47 H18        0.7917    2.0299    3.9829 H         1 <0>         0.1348 
      48 H19        1.2284   -0.7356    7.2234 H         1 <0>         0.1285 
      49 H20        3.4175    0.2452    7.7834 H         1 <0>         0.1266 
      50 H21       -0.7171   -1.0654    6.9548 H         1 <0>         0.0957 
      51 H22       -2.1236   -0.7739    5.9085 H         1 <0>         0.0953 
      52 H23       -2.6444    2.6078    7.1768 H         1 <0>         0.4036 
      53 H24       -2.8285    1.6459    5.7269 H         1 <0>         0.4104 
@<TRIPOS>BOND
       1        1        2 1        
       2        1       30 1        
       3        1       31 1        
       4        1       32 1        
       5        2        3 2        
       6        2        4 am       
       7        4        5 1        
       8        4       33 1        
       9        5       10 ar       
      10        5        6 ar       
      11        6        7 ar       
      12        6       34 1        
      13        7        8 ar       
      14        7       35 1        
      15        8        9 ar       
      16        8       13 1        
      17        9       10 ar       
      18        9       36 1        
      19       10       11 1        
      20       11       12 1        
      21       12       37 1        
      22       12       38 1        
      23       12       39 1        
      24       13       14 am       
      25       13       40 1        
      26       14       15 2        
      27       14       16 am       
      28       16       17 1        
      29       16       41 1        
      30       17       18 1        
      31       17       42 1        
      32       17       43 1        
      33       18       19 1        
      34       18       44 1        
      35       18       45 1        
      36       19       24 ar       
      37       19       20 ar       
      38       20       21 ar       
      39       20       46 1        
      40       21       22 ar       
      41       21       47 1        
      42       22       23 ar       
      43       22       25 1        
      44       23       24 ar       
      45       23       48 1        
      46       24       49 1        
      47       25       26 1        
      48       26       27 1        
      49       26       50 1        
      50       26       51 1        
      51       27       28 2        
      52       27       29 am       
      53       29       52 1        
      54       29       53 1        

