#        1GCZ_R01_S0001_C0000_L00015_S0001_C0006_G0010_E0001.mol2
#        Tue Jun  6 14:16:27 2017
#        Descriptor:     22    18     1    15     9    13
#        Energy - RMSD - RMSD MassCentre:     -63.9354    999.9999    999.9999
#        Receptor:       1  Surface Point:     1  Conformer:     0
#        Ligand:        15  Surface Point:     1  Conformer:     6
#        BUDE Formal Charge: 0
#        ATOM Count: 53
#        Heavy ATOM Count: 29
@<TRIPOS>MOLECULE
ZINC61646583_1GCZ_R01_S0001_C0000_L00015_S0001_C0006_G0010_E0001
 53 54 0 0 0
SMALL
USER_CHARGES
@<TRIPOS>ATOM
       1 C1        15.1618    1.6389    1.4440 C.3       1 <0>        -0.1727 
       2 C2        13.7917    1.9115    2.0175 C.2       1 <0>         0.5094 
       3 O1        13.1080    2.8302    1.5689 O.2       1 <0>        -0.5291 
       4 N1        13.3241    1.1578    3.0085 N.am      1 <0>        -0.6649 
       5 C3        12.0403    1.4133    3.5459 C.ar      1 <0>         0.0992 
       6 C4        11.2281    2.4445    3.0527 C.ar      1 <0>        -0.0654 
       7 C5        10.0160    2.7467    3.6847 C.ar      1 <0>        -0.1341 
       8 C6         9.5495    1.9434    4.7320 C.ar      1 <0>         0.1883 
       9 C7        10.3537    0.8986    5.2029 C.ar      1 <0>        -0.2193 
      10 C8        11.5761    0.6024    4.5884 C.ar      1 <0>         0.1218 
      11 O2        12.3681   -0.4495    4.9665 O.3       1 <0>        -0.3161 
      12 C9        11.7295   -1.6872    5.2912 C.3       1 <0>         0.0284 
      13 N2         8.2639    2.1779    5.2744 N.am      1 <0>        -0.6855 
      14 C10        7.8124    1.4196    6.2695 C.2       1 <0>         0.7035 
      15 O3         8.5244    0.4992    6.7259 O.2       1 <0>        -0.5662 
      16 N3         6.6037    1.6413    6.7784 N.am      1 <0>        -0.7422 
      17 C11        6.1049    0.8033    7.8782 C.3       1 <0>         0.1412 
      18 C12        4.7028    1.2646    8.2731 C.3       1 <0>        -0.0858 
      19 C13        3.7629    1.0703    7.1073 C.ar      1 <0>        -0.1209 
      20 C14        3.5793    2.0882    6.1638 C.ar      1 <0>        -0.0699 
      21 C15        2.7362    1.8953    5.0628 C.ar      1 <0>        -0.1435 
      22 C16        2.0465    0.6904    4.9112 C.ar      1 <0>         0.1285 
      23 C17        2.2088   -0.3242    5.8621 C.ar      1 <0>        -0.2085 
      24 C18        3.0662   -0.1341    6.9524 C.ar      1 <0>        -0.0706 
      25 O4         1.2187    0.5062    3.8353 O.3       1 <0>        -0.2897 
      26 C19       -0.0261   -0.1630    4.0535 C.3       1 <0>         0.0392 
      27 C20       -0.8549    0.6264    5.0384 C.2       1 <0>         0.5189 
      28 O5        -0.9845    0.2245    6.1937 O.2       1 <0>        -0.5163 
      29 N4        -1.4442    1.7558    4.6562 N.am      1 <0>        -0.8501 
      30 H1        15.5943    0.7707    1.9369 H         1 <0>         0.0965 
      31 H2        15.0755    1.4452    0.3768 H         1 <0>         0.0914 
      32 H3        15.8007    2.5043    1.6057 H         1 <0>         0.0912 
      33 H4        13.8846    0.4032    3.3777 H         1 <0>         0.4136 
      34 H5        11.5179    3.0173    2.1841 H         1 <0>         0.1501 
      35 H6         9.4318    3.5931    3.3550 H         1 <0>         0.1469 
      36 H7         9.9716    0.3226    6.0327 H         1 <0>         0.1349 
      37 H8        11.1864   -2.0531    4.4223 H         1 <0>         0.1017 
      38 H9        12.4816   -2.4170    5.5833 H         1 <0>         0.0561 
      39 H10       11.0355   -1.5315    6.1144 H         1 <0>         0.0561 
      40 H11        7.6886    2.9216    4.9057 H         1 <0>         0.4065 
      41 H12        6.0294    2.3854    6.4089 H         1 <0>         0.3980 
      42 H13        6.7714    0.8936    8.7332 H         1 <0>         0.0719 
      43 H14        6.0681   -0.2347    7.5543 H         1 <0>         0.0706 
      44 H15        4.7313    2.3176    8.5452 H         1 <0>         0.0792 
      45 H16        4.3548    0.6794    9.1217 H         1 <0>         0.0805 
      46 H17        4.0869    3.0354    6.2704 H         1 <0>         0.1321 
      47 H18        2.6073    2.6763    4.3282 H         1 <0>         0.1348 
      48 H19        1.6720   -1.2544    5.7477 H         1 <0>         0.1285 
      49 H20        3.1782   -0.9332    7.6702 H         1 <0>         0.1266 
      50 H21        0.1626   -1.1575    4.4524 H         1 <0>         0.0957 
      51 H22       -0.5629   -0.2454    3.1108 H         1 <0>         0.0953 
      52 H23       -1.9986    2.2838    5.3149 H         1 <0>         0.4036 
      53 H24       -1.3372    2.0848    3.7072 H         1 <0>         0.4104 
@<TRIPOS>BOND
       1        1        2 1        
       2        1       30 1        
       3        1       31 1        
       4        1       32 1        
       5        2        3 2        
       6        2        4 am       
       7        4        5 1        
       8        4       33 1        
       9        5       10 ar       
      10        5        6 ar       
      11        6        7 ar       
      12        6       34 1        
      13        7        8 ar       
      14        7       35 1        
      15        8        9 ar       
      16        8       13 1        
      17        9       10 ar       
      18        9       36 1        
      19       10       11 1        
      20       11       12 1        
      21       12       37 1        
      22       12       38 1        
      23       12       39 1        
      24       13       14 am       
      25       13       40 1        
      26       14       15 2        
      27       14       16 am       
      28       16       17 1        
      29       16       41 1        
      30       17       18 1        
      31       17       42 1        
      32       17       43 1        
      33       18       19 1        
      34       18       44 1        
      35       18       45 1        
      36       19       24 ar       
      37       19       20 ar       
      38       20       21 ar       
      39       20       46 1        
      40       21       22 ar       
      41       21       47 1        
      42       22       23 ar       
      43       22       25 1        
      44       23       24 ar       
      45       23       48 1        
      46       24       49 1        
      47       25       26 1        
      48       26       27 1        
      49       26       50 1        
      50       26       51 1        
      51       27       28 2        
      52       27       29 am       
      53       29       52 1        
      54       29       53 1        

