#        1GCZ_R01_S0001_C0000_L00015_S0001_C0007_G0010_E0001.mol2
#        Tue Jun  6 10:00:08 2017
#        Descriptor:     21    18    32    12     6    12
#        Energy - RMSD - RMSD MassCentre:     -68.6012    999.9999    999.9999
#        Receptor:       1  Surface Point:     1  Conformer:     0
#        Ligand:        15  Surface Point:     1  Conformer:     7
#        BUDE Formal Charge: 0
#        ATOM Count: 53
#        Heavy ATOM Count: 29
@<TRIPOS>MOLECULE
ZINC61646583_1GCZ_R01_S0001_C0000_L00015_S0001_C0007_G0010_E0001
 53 54 0 0 0
SMALL
USER_CHARGES
@<TRIPOS>ATOM
       1 C1        10.3088   -6.2176    1.1082 C.3       1 <0>        -0.1727 
       2 C2         9.5680   -5.0750    1.7609 C.2       1 <0>         0.5094 
       3 O1         9.8724   -3.9129    1.4968 O.2       1 <0>        -0.5291 
       4 N1         8.5859   -5.3254    2.6220 N.am      1 <0>        -0.6649 
       5 C3         7.8918   -4.2547    3.2336 C.ar      1 <0>         0.0992 
       6 C4         8.2034   -2.9175    2.9488 C.ar      1 <0>        -0.0654 
       7 C5         7.5803   -1.8847    3.6594 C.ar      1 <0>        -0.1341 
       8 C6         6.5551   -2.1748    4.5675 C.ar      1 <0>         0.1883 
       9 C7         6.2305   -3.5114    4.8283 C.ar      1 <0>        -0.2193 
      10 C8         6.8628   -4.5507    4.1356 C.ar      1 <0>         0.1218 
      11 O2         6.5354   -5.8702    4.3043 O.3       1 <0>        -0.3161 
      12 C9         5.1514   -6.2068    4.4316 C.3       1 <0>         0.0284 
      13 N2         5.8434   -1.1166    5.1806 N.am      1 <0>        -0.6855 
      14 C10        4.8677   -1.3828    6.0444 C.2       1 <0>         0.7035 
      15 O3         4.5794   -2.5686    6.3150 O.2       1 <0>        -0.5662 
      16 N3         4.1997   -0.3871    6.6200 N.am      1 <0>        -0.7422 
      17 C11        3.1215   -0.6813    7.5748 C.3       1 <0>         0.1412 
      18 C12        2.0020   -1.4371    6.8604 C.3       1 <0>        -0.0858 
      19 C13        1.4115   -0.5596    5.7827 C.ar      1 <0>        -0.1209 
      20 C14        0.3379    0.2927    6.0676 C.ar      1 <0>        -0.0699 
      21 C15       -0.1863    1.1333    5.0782 C.ar      1 <0>        -0.1435 
      22 C16        0.3419    1.1080    3.7856 C.ar      1 <0>         0.1285 
      23 C17        1.4016    0.2431    3.4879 C.ar      1 <0>        -0.2085 
      24 C18        1.9346   -0.5835    4.4843 C.ar      1 <0>        -0.0706 
      25 O4        -0.1761    1.9284    2.8184 O.3       1 <0>        -0.2897 
      26 C19       -0.3357    1.3948    1.5013 C.3       1 <0>         0.0392 
      27 C20       -1.2817    0.2187    1.5469 C.2       1 <0>         0.5189 
      28 O5        -0.8447   -0.9260    1.4396 O.2       1 <0>        -0.5163 
      29 N4        -2.5869    0.4214    1.7032 N.am      1 <0>        -0.8501 
      30 H1         9.8758   -7.1617    1.4321 H         1 <0>         0.0965 
      31 H2        10.2258   -6.1319    0.0267 H         1 <0>         0.0914 
      32 H3        11.3572   -6.1808    1.3962 H         1 <0>         0.0912 
      33 H4         8.3351   -6.2792    2.8397 H         1 <0>         0.4136 
      34 H5         8.9205   -2.6618    2.1826 H         1 <0>         0.1501 
      35 H6         7.8808   -0.8602    3.4971 H         1 <0>         0.1469 
      36 H7         5.4559   -3.6935    5.5585 H         1 <0>         0.1349 
      37 H8         4.6216   -5.9073    3.5297 H         1 <0>         0.1017 
      38 H9         5.0515   -7.2811    4.5717 H         1 <0>         0.0561 
      39 H10        4.7300   -5.6878    5.2899 H         1 <0>         0.0561 
      40 H11        6.0763   -0.1586    4.9619 H         1 <0>         0.4065 
      41 H12        4.4336    0.5706    6.4007 H         1 <0>         0.3980 
      42 H13        2.7308    0.2506    7.9781 H         1 <0>         0.0719 
      43 H14        3.5126   -1.2925    8.3855 H         1 <0>         0.0706 
      44 H15        1.2283   -1.7014    7.5782 H         1 <0>         0.0792 
      45 H16        2.4055   -2.3422    6.4114 H         1 <0>         0.0805 
      46 H17       -0.0995    0.3155    7.0547 H         1 <0>         0.1321 
      47 H18       -1.0048    1.8006    5.3039 H         1 <0>         0.1348 
      48 H19        1.8073    0.2198    2.4872 H         1 <0>         0.1285 
      49 H20        2.7548   -1.2389    4.2314 H         1 <0>         0.1266 
      50 H21        0.6310    1.0689    1.1231 H         1 <0>         0.0957 
      51 H22       -0.7421    2.1627    0.8465 H         1 <0>         0.0953 
      52 H23       -3.2197   -0.3652    1.7337 H         1 <0>         0.4036 
      53 H24       -2.9446    1.3618    1.7911 H         1 <0>         0.4104 
@<TRIPOS>BOND
       1        1        2 1        
       2        1       30 1        
       3        1       31 1        
       4        1       32 1        
       5        2        3 2        
       6        2        4 am       
       7        4        5 1        
       8        4       33 1        
       9        5       10 ar       
      10        5        6 ar       
      11        6        7 ar       
      12        6       34 1        
      13        7        8 ar       
      14        7       35 1        
      15        8        9 ar       
      16        8       13 1        
      17        9       10 ar       
      18        9       36 1        
      19       10       11 1        
      20       11       12 1        
      21       12       37 1        
      22       12       38 1        
      23       12       39 1        
      24       13       14 am       
      25       13       40 1        
      26       14       15 2        
      27       14       16 am       
      28       16       17 1        
      29       16       41 1        
      30       17       18 1        
      31       17       42 1        
      32       17       43 1        
      33       18       19 1        
      34       18       44 1        
      35       18       45 1        
      36       19       24 ar       
      37       19       20 ar       
      38       20       21 ar       
      39       20       46 1        
      40       21       22 ar       
      41       21       47 1        
      42       22       23 ar       
      43       22       25 1        
      44       23       24 ar       
      45       23       48 1        
      46       24       49 1        
      47       25       26 1        
      48       26       27 1        
      49       26       50 1        
      50       26       51 1        
      51       27       28 2        
      52       27       29 am       
      53       29       52 1        
      54       29       53 1        

