#        1GCZ_R01_S0001_C0000_L00015_S0001_C0007_G0010_E0001.mol2
#        Tue Jun  6 14:16:29 2017
#        Descriptor:     22    17    34    14     9    14
#        Energy - RMSD - RMSD MassCentre:     -56.9708    999.9999    999.9999
#        Receptor:       1  Surface Point:     1  Conformer:     0
#        Ligand:        15  Surface Point:     1  Conformer:     7
#        BUDE Formal Charge: 0
#        ATOM Count: 53
#        Heavy ATOM Count: 29
@<TRIPOS>MOLECULE
ZINC61646583_1GCZ_R01_S0001_C0000_L00015_S0001_C0007_G0010_E0001
 53 54 0 0 0
SMALL
USER_CHARGES
@<TRIPOS>ATOM
       1 C1        12.5990   -1.0723    1.7445 C.3       1 <0>        -0.1727 
       2 C2        11.6610   -0.1920    2.5353 C.2       1 <0>         0.5094 
       3 O1        11.4623    0.9694    2.1827 O.2       1 <0>        -0.5291 
       4 N1        11.0493   -0.6729    3.6139 N.am      1 <0>        -0.6649 
       5 C3        10.1704    0.1520    4.3550 C.ar      1 <0>         0.0992 
       6 C4         9.9110    1.4773    3.9771 C.ar      1 <0>        -0.0654 
       7 C5         9.1318    2.3016    4.7976 C.ar      1 <0>        -0.1341 
       8 C6         8.5056    1.7738    5.9330 C.ar      1 <0>         0.1883 
       9 C7         8.7477    0.4421    6.2907 C.ar      1 <0>        -0.2193 
      10 C8         9.5415   -0.3831    5.4855 C.ar      1 <0>         0.1218 
      11 O2         9.7546   -1.7095    5.7542 O.3       1 <0>        -0.3161 
      12 C9         8.6478   -2.4857    6.2204 C.3       1 <0>         0.0284 
      13 N2         7.6154    2.5812    6.6800 N.am      1 <0>        -0.6855 
      14 C10        7.0159    2.0881    7.7600 C.2       1 <0>         0.7035 
      15 O3         7.2391    0.9106    8.1155 O.2       1 <0>        -0.5662 
      16 N3         6.1795    2.8482    8.4612 N.am      1 <0>        -0.7422 
      17 C11        5.5170    2.3033    9.6549 C.3       1 <0>         0.1412 
      18 C12        4.6151    1.1386    9.2486 C.3       1 <0>        -0.0858 
      19 C13        3.5276    1.6420    8.3299 C.ar      1 <0>        -0.1209 
      20 C14        2.3108    2.0985    8.8505 C.ar      1 <0>        -0.0699 
      21 C15        1.3161    2.5994    8.0020 C.ar      1 <0>        -0.1435 
      22 C16        1.5198    2.6219    6.6206 C.ar      1 <0>         0.1285 
      23 C17        2.7258    2.1474    6.0911 C.ar      1 <0>        -0.2085 
      24 C18        3.7250    1.6634    6.9441 C.ar      1 <0>        -0.0706 
      25 O4         0.5429    3.1084    5.7925 O.3       1 <0>        -0.2897 
      26 C19        0.2995    2.4177    4.5642 C.3       1 <0>         0.0392 
      27 C20       -0.1270    1.0000    4.8611 C.2       1 <0>         0.5189 
      28 O5         0.6563    0.0704    4.6730 O.2       1 <0>        -0.5163 
      29 N4        -1.3493    0.7572    5.3258 N.am      1 <0>        -0.8501 
      30 H1        12.6160   -2.0683    2.1820 H         1 <0>         0.0965 
      31 H2        12.2550   -1.1341    0.7140 H         1 <0>         0.0914 
      32 H3        13.6003   -0.6478    1.7683 H         1 <0>         0.0912 
      33 H4        11.2117   -1.6264    3.9044 H         1 <0>         0.4136 
      34 H5        10.3011    1.8820    3.0548 H         1 <0>         0.1501 
      35 H6         9.0013    3.3441    4.5473 H         1 <0>         0.1469 
      36 H7         8.2710    0.0826    7.1906 H         1 <0>         0.1349 
      37 H8         7.8613   -2.4825    5.4686 H         1 <0>         0.1017 
      38 H9         8.9732   -3.5080    6.4014 H         1 <0>         0.0561 
      39 H10        8.2684   -2.0561    7.1451 H         1 <0>         0.0561 
      40 H11        7.4351    3.5325    6.3928 H         1 <0>         0.4065 
      41 H12        6.0001    3.7994    8.1731 H         1 <0>         0.3980 
      42 H13        4.9172    3.0811   10.1229 H         1 <0>         0.0719 
      43 H14        6.2693    1.9521   10.3580 H         1 <0>         0.0706 
      44 H15        4.1660    0.7014   10.1379 H         1 <0>         0.0792 
      45 H16        5.2069    0.3854    8.7327 H         1 <0>         0.0805 
      46 H17        2.1230    2.0729    9.9137 H         1 <0>         0.1321 
      47 H18        0.3839    2.9648    8.4068 H         1 <0>         0.1348 
      48 H19        2.8819    2.1603    5.0225 H         1 <0>         0.1285 
      49 H20        4.6484    1.3069    6.5121 H         1 <0>         0.1266 
      50 H21        1.2101    2.4060    3.9688 H         1 <0>         0.0957 
      51 H22       -0.4886    2.9263    4.0129 H         1 <0>         0.0953 
      52 H23       -1.6346   -0.1911    5.5243 H         1 <0>         0.4036 
      53 H24       -1.9916    1.5213    5.4797 H         1 <0>         0.4104 
@<TRIPOS>BOND
       1        1        2 1        
       2        1       30 1        
       3        1       31 1        
       4        1       32 1        
       5        2        3 2        
       6        2        4 am       
       7        4        5 1        
       8        4       33 1        
       9        5       10 ar       
      10        5        6 ar       
      11        6        7 ar       
      12        6       34 1        
      13        7        8 ar       
      14        7       35 1        
      15        8        9 ar       
      16        8       13 1        
      17        9       10 ar       
      18        9       36 1        
      19       10       11 1        
      20       11       12 1        
      21       12       37 1        
      22       12       38 1        
      23       12       39 1        
      24       13       14 am       
      25       13       40 1        
      26       14       15 2        
      27       14       16 am       
      28       16       17 1        
      29       16       41 1        
      30       17       18 1        
      31       17       42 1        
      32       17       43 1        
      33       18       19 1        
      34       18       44 1        
      35       18       45 1        
      36       19       24 ar       
      37       19       20 ar       
      38       20       21 ar       
      39       20       46 1        
      40       21       22 ar       
      41       21       47 1        
      42       22       23 ar       
      43       22       25 1        
      44       23       24 ar       
      45       23       48 1        
      46       24       49 1        
      47       25       26 1        
      48       26       27 1        
      49       26       50 1        
      50       26       51 1        
      51       27       28 2        
      52       27       29 am       
      53       29       52 1        
      54       29       53 1        

