#        1GCZ_R01_S0001_C0000_L00015_S0001_C0008_G0010_E0001.mol2
#        Tue Jun  6 10:00:09 2017
#        Descriptor:     23     2    34    15     9    13
#        Energy - RMSD - RMSD MassCentre:     -62.0850    999.9999    999.9999
#        Receptor:       1  Surface Point:     1  Conformer:     0
#        Ligand:        15  Surface Point:     1  Conformer:     8
#        BUDE Formal Charge: 0
#        ATOM Count: 53
#        Heavy ATOM Count: 29
@<TRIPOS>MOLECULE
ZINC61646583_1GCZ_R01_S0001_C0000_L00015_S0001_C0008_G0010_E0001
 53 54 0 0 0
SMALL
USER_CHARGES
@<TRIPOS>ATOM
       1 C1        -2.0782    3.2169    7.9182 C.3       1 <0>        -0.1727 
       2 C2        -0.5708    3.3049    7.9154 C.2       1 <0>         0.5094 
       3 O1         0.0019    4.0861    8.6733 O.2       1 <0>        -0.5291 
       4 N1         0.1382    2.5371    7.0927 N.am      1 <0>        -0.6649 
       5 C3         1.5508    2.6197    7.0901 C.ar      1 <0>         0.0992 
       6 C4         2.2386    3.4903    7.9475 C.ar      1 <0>        -0.0654 
       7 C5         3.6266    3.6344    7.8359 C.ar      1 <0>        -0.1341 
       8 C6         4.3496    2.8205    6.9557 C.ar      1 <0>         0.1883 
       9 C7         3.6591    1.9342    6.1204 C.ar      1 <0>        -0.2193 
      10 C8         2.2689    1.7985    6.2127 C.ar      1 <0>         0.1218 
      11 O2         1.5539    0.8988    5.4670 O.3       1 <0>        -0.3161 
      12 C9         2.1097   -0.4046    5.2744 C.3       1 <0>         0.0284 
      13 N2         5.7632    2.8823    6.9469 N.am      1 <0>        -0.6855 
      14 C10        6.4583    2.1127    6.1141 C.2       1 <0>         0.7035 
      15 O3         5.8623    1.3344    5.3385 O.2       1 <0>        -0.5662 
      16 N3         7.7870    2.1719    6.1070 N.am      1 <0>        -0.7422 
      17 C11        8.5551    1.3214    5.1865 C.3       1 <0>         0.1412 
      18 C12       10.0482    1.5822    5.3798 C.3       1 <0>        -0.0858 
      19 C13       10.8374    0.7085    4.4342 C.ar      1 <0>        -0.1209 
      20 C14       11.2479   -0.5721    4.8235 C.ar      1 <0>        -0.0699 
      21 C15       11.9479   -1.3966    3.9344 C.ar      1 <0>        -0.1435 
      22 C16       12.2681   -0.9356    2.6557 C.ar      1 <0>         0.1285 
      23 C17       11.8793    0.3518    2.2667 C.ar      1 <0>        -0.2085 
      24 C18       11.1643    1.1670    3.1524 C.ar      1 <0>        -0.0706 
      25 O4        12.9570   -1.7430    1.7895 O.3       1 <0>        -0.2897 
      26 C19       13.9770   -1.1466    0.9840 C.3       1 <0>         0.0392 
      27 C20       14.6068   -2.2027    0.1075 C.2       1 <0>         0.5189 
      28 O5        14.3476   -2.2386   -1.0943 O.2       1 <0>        -0.5163 
      29 N4        15.4413   -3.0935    0.6357 N.am      1 <0>        -0.8501 
      30 H1        -2.3973    2.4494    7.2162 H         1 <0>         0.0965 
      31 H2        -2.4241    2.9614    8.9177 H         1 <0>         0.0914 
      32 H3        -2.4974    4.1763    7.6229 H         1 <0>         0.0912 
      33 H4        -0.3309    1.8953    6.4699 H         1 <0>         0.4136 
      34 H5         1.7166    4.0582    8.7035 H         1 <0>         0.1501 
      35 H6         4.1437    4.3651    8.4401 H         1 <0>         0.1469 
      36 H7         4.2509    1.3473    5.4337 H         1 <0>         0.1349 
      37 H8         2.2367   -0.8902    6.2397 H         1 <0>         0.1017 
      38 H9         1.4386   -0.9965    4.6555 H         1 <0>         0.0561 
      39 H10        3.0757   -0.3171    4.7817 H         1 <0>         0.0561 
      40 H11        6.2447    3.5111    7.5736 H         1 <0>         0.4065 
      41 H12        8.2674    2.8012    6.7340 H         1 <0>         0.3980 
      42 H13        8.2756    1.5532    4.1610 H         1 <0>         0.0719 
      43 H14        8.3391    0.2756    5.3945 H         1 <0>         0.0706 
      44 H15       10.3263    1.3509    6.4059 H         1 <0>         0.0792 
      45 H16       10.2628    2.6284    5.1723 H         1 <0>         0.0805 
      46 H17       11.0287   -0.9429    5.8138 H         1 <0>         0.1321 
      47 H18       12.2509   -2.3897    4.2315 H         1 <0>         0.1348 
      48 H19       12.1308    0.7105    1.2796 H         1 <0>         0.1285 
      49 H20       10.8716    2.1546    2.8279 H         1 <0>         0.1266 
      50 H21       14.7368   -0.7085    1.6278 H         1 <0>         0.0957 
      51 H22       13.5382   -0.3709    0.3599 H         1 <0>         0.0953 
      52 H23       15.8626   -3.7999    0.0494 H         1 <0>         0.4036 
      53 H24       15.6532   -3.0632    1.6227 H         1 <0>         0.4104 
@<TRIPOS>BOND
       1        1        2 1        
       2        1       30 1        
       3        1       31 1        
       4        1       32 1        
       5        2        3 2        
       6        2        4 am       
       7        4        5 1        
       8        4       33 1        
       9        5       10 ar       
      10        5        6 ar       
      11        6        7 ar       
      12        6       34 1        
      13        7        8 ar       
      14        7       35 1        
      15        8        9 ar       
      16        8       13 1        
      17        9       10 ar       
      18        9       36 1        
      19       10       11 1        
      20       11       12 1        
      21       12       37 1        
      22       12       38 1        
      23       12       39 1        
      24       13       14 am       
      25       13       40 1        
      26       14       15 2        
      27       14       16 am       
      28       16       17 1        
      29       16       41 1        
      30       17       18 1        
      31       17       42 1        
      32       17       43 1        
      33       18       19 1        
      34       18       44 1        
      35       18       45 1        
      36       19       24 ar       
      37       19       20 ar       
      38       20       21 ar       
      39       20       46 1        
      40       21       22 ar       
      41       21       47 1        
      42       22       23 ar       
      43       22       25 1        
      44       23       24 ar       
      45       23       48 1        
      46       24       49 1        
      47       25       26 1        
      48       26       27 1        
      49       26       50 1        
      50       26       51 1        
      51       27       28 2        
      52       27       29 am       
      53       29       52 1        
      54       29       53 1        

