#        1GCZ_R01_S0001_C0000_L00015_S0001_C0008_G0010_E0001.mol2
#        Tue Jun  6 14:16:31 2017
#        Descriptor:      9    18    14    14    10    13
#        Energy - RMSD - RMSD MassCentre:     -63.3939    999.9999    999.9999
#        Receptor:       1  Surface Point:     1  Conformer:     0
#        Ligand:        15  Surface Point:     1  Conformer:     8
#        BUDE Formal Charge: 0
#        ATOM Count: 53
#        Heavy ATOM Count: 29
@<TRIPOS>MOLECULE
ZINC61646583_1GCZ_R01_S0001_C0000_L00015_S0001_C0008_G0010_E0001
 53 54 0 0 0
SMALL
USER_CHARGES
@<TRIPOS>ATOM
       1 C1        -2.8708    3.4550    8.8776 C.3       1 <0>        -0.1727 
       2 C2        -1.3819    3.2040    8.8969 C.2       1 <0>         0.5094 
       3 O1        -0.7864    3.1144    9.9693 O.2       1 <0>        -0.5291 
       4 N1        -0.7141    3.0799    7.7535 N.am      1 <0>        -0.6649 
       5 C3         0.6811    2.8447    7.7716 C.ar      1 <0>         0.0992 
       6 C4         1.3917    2.7258    8.9746 C.ar      1 <0>        -0.0654 
       7 C5         2.7871    2.6133    8.9576 C.ar      1 <0>        -0.1341 
       8 C6         3.4681    2.4933    7.7404 C.ar      1 <0>         0.1883 
       9 C7         2.7495    2.5866    6.5426 C.ar      1 <0>        -0.2193 
      10 C8         1.3559    2.7186    6.5515 C.ar      1 <0>         0.1218 
      11 O2         0.5997    2.7466    5.4095 O.3       1 <0>        -0.3161 
      12 C9         0.9481    1.8492    4.3521 C.3       1 <0>         0.0284 
      13 N2         4.8616    2.2476    7.7397 N.am      1 <0>        -0.6855 
      14 C10        5.5169    2.1319    6.5881 C.2       1 <0>         0.7035 
      15 O3         4.9013    2.2405    5.5056 O.2       1 <0>        -0.5662 
      16 N3         6.8267    1.9011    6.5890 N.am      1 <0>        -0.7422 
      17 C11        7.5509    1.7734    5.3162 C.3       1 <0>         0.1412 
      18 C12        9.0300    1.5126    5.5969 C.3       1 <0>        -0.0858 
      19 C13        9.7740    1.3814    4.2894 C.ar      1 <0>        -0.1209 
      20 C14        9.9108    0.1331    3.6705 C.ar      1 <0>        -0.0699 
      21 C15       10.5687    0.0164    2.4402 C.ar      1 <0>        -0.1435 
      22 C16       11.1207    1.1453    1.8310 C.ar      1 <0>         0.1285 
      23 C17       11.0063    2.3936    2.4543 C.ar      1 <0>        -0.2085 
      24 C18       10.3325    2.5092    3.6761 C.ar      1 <0>        -0.0706 
      25 O4        11.7678    1.0272    0.6293 O.3       1 <0>        -0.2897 
      26 C19       12.9670    1.7820    0.4363 C.3       1 <0>         0.0392 
      27 C20       13.5158    1.5091   -0.9438 C.2       1 <0>         0.5189 
      28 O5        13.4081    2.3584   -1.8270 O.2       1 <0>        -0.5163 
      29 N4        14.1152    0.3506   -1.2035 N.am      1 <0>        -0.8501 
      30 H1        -3.2233    3.4631    7.8483 H         1 <0>         0.0965 
      31 H2        -3.3781    2.6659    9.4290 H         1 <0>         0.0914 
      32 H3        -3.0820    4.4160    9.3416 H         1 <0>         0.0912 
      33 H4        -1.2020    3.1533    6.8723 H         1 <0>         0.4136 
      34 H5         0.8814    2.7165    9.9265 H         1 <0>         0.1501 
      35 H6         3.3392    2.6049    9.8858 H         1 <0>         0.1469 
      36 H7         3.3160    2.5208    5.6255 H         1 <0>         0.1349 
      37 H8         0.8688    0.8237    4.7068 H         1 <0>         0.1017 
      38 H9         0.2707    1.9970    3.5137 H         1 <0>         0.0561 
      39 H10        1.9695    2.0452    4.0327 H         1 <0>         0.0561 
      40 H11        5.3590    2.1598    8.6143 H         1 <0>         0.4065 
      41 H12        7.3231    1.8137    7.4642 H         1 <0>         0.3980 
      42 H13        7.4460    2.6940    4.7461 H         1 <0>         0.0719 
      43 H14        7.1375    0.9440    4.7462 H         1 <0>         0.0706 
      44 H15        9.1335    0.5922    6.1677 H         1 <0>         0.0792 
      45 H16        9.4419    2.3422    6.1675 H         1 <0>         0.0805 
      46 H17        9.5091   -0.7568    4.1320 H         1 <0>         0.1321 
      47 H18       10.6605   -0.9453    1.9572 H         1 <0>         0.1348 
      48 H19       11.4371    3.2661    1.9859 H         1 <0>         0.1285 
      49 H20       10.2534    3.4835    4.1352 H         1 <0>         0.1266 
      50 H21       13.7022    1.4909    1.1836 H         1 <0>         0.0957 
      51 H22       12.7473    2.8428    0.5366 H         1 <0>         0.0953 
      52 H23       14.4822    0.1680   -2.1266 H         1 <0>         0.4036 
      53 H24       14.2028   -0.3462   -0.4776 H         1 <0>         0.4104 
@<TRIPOS>BOND
       1        1        2 1        
       2        1       30 1        
       3        1       31 1        
       4        1       32 1        
       5        2        3 2        
       6        2        4 am       
       7        4        5 1        
       8        4       33 1        
       9        5       10 ar       
      10        5        6 ar       
      11        6        7 ar       
      12        6       34 1        
      13        7        8 ar       
      14        7       35 1        
      15        8        9 ar       
      16        8       13 1        
      17        9       10 ar       
      18        9       36 1        
      19       10       11 1        
      20       11       12 1        
      21       12       37 1        
      22       12       38 1        
      23       12       39 1        
      24       13       14 am       
      25       13       40 1        
      26       14       15 2        
      27       14       16 am       
      28       16       17 1        
      29       16       41 1        
      30       17       18 1        
      31       17       42 1        
      32       17       43 1        
      33       18       19 1        
      34       18       44 1        
      35       18       45 1        
      36       19       24 ar       
      37       19       20 ar       
      38       20       21 ar       
      39       20       46 1        
      40       21       22 ar       
      41       21       47 1        
      42       22       23 ar       
      43       22       25 1        
      44       23       24 ar       
      45       23       48 1        
      46       24       49 1        
      47       25       26 1        
      48       26       27 1        
      49       26       50 1        
      50       26       51 1        
      51       27       28 2        
      52       27       29 am       
      53       29       52 1        
      54       29       53 1        

