#        1GCZ_R01_S0001_C0000_L00003_S0001_C0029_G0010_E0001.mol2
#        Tue Jun  6 09:55:00 2017
#        Descriptor:      2    34     4     9    11    14
#        Energy - RMSD - RMSD MassCentre:     -67.8223    999.9999    999.9999
#        Receptor:       1  Surface Point:     1  Conformer:     0
#        Ligand:         3  Surface Point:     1  Conformer:    29
#        BUDE Formal Charge: 0
#        ATOM Count: 58
#        Heavy ATOM Count: 30
@<TRIPOS>MOLECULE
ZINC61580633_1GCZ_R01_S0001_C0000_L00003_S0001_C0029_G0010_E0001
 58 59 0 0 0
SMALL
USER_CHARGES
@<TRIPOS>ATOM
       1 C1         3.4286    4.0772   10.0967 C.3       1 <0>        -0.1532 
       2 C2         3.2086    3.9871    8.5893 C.3       1 <0>        -0.1224 
       3 C3         3.8016    5.2230    7.9141 C.3       1 <0>        -0.1198 
       4 C4         3.5813    5.1327    6.4048 C.3       1 <0>         0.0610 
       5 O1         2.1785    5.1363    6.1276 O.3       1 <0>        -0.3878 
       6 C5         1.5458    6.3336    6.5868 C.3       1 <0>         0.0487 
       7 C6         0.0537    6.2769    6.2624 C.3       1 <0>         0.1244 
       8 N1        -0.6023    5.3030    7.1466 N.am      1 <0>        -0.7216 
       9 C7        -0.7758    5.5861    8.4345 C.2       1 <0>         0.5161 
      10 O2        -0.3877    6.6622    8.8862 O.2       1 <0>        -0.5151 
      11 C8        -1.4498    4.5856    9.3428 C.3       1 <0>         0.0490 
      12 O3        -0.5880    3.4607    9.5341 O.3       1 <0>        -0.3194 
      13 C9        -0.2683    2.7169    8.4539 C.2       1 <0>         0.5417 
      14 O4        -0.7115    3.0121    7.3562 O.2       1 <0>        -0.5337 
      15 C10        0.6203    1.5427    8.6011 C.2       1 <0>        -0.2559 
      16 C11        1.2225    1.1048    9.8802 C.2       1 <0>        -0.0791 
      17 C12        1.9949    0.0256    9.7357 C.2       1 <0>        -0.2585 
      18 S1         2.0559   -0.5513    8.0636 S.3       1 <0>         0.3028 
      19 C13        0.9770    0.7627    7.5716 C.2       1 <0>         0.0893 
      20 N2         0.5413    0.9966    6.2939 N.am      1 <0>        -0.6099 
      21 C14        0.9221    0.1949    5.3034 C.2       1 <0>         0.5551 
      22 O5         1.6657   -0.7573    5.5345 O.2       1 <0>        -0.4939 
      23 C15        0.4506    0.4489    3.9237 C.ar      1 <0>        -0.1466 
      24 C16        0.8783   -0.4181    2.9110 C.ar      1 <0>        -0.0772 
      25 C17        0.5261   -0.1868    1.5761 C.ar      1 <0>        -0.1241 
      26 C18       -0.2528    0.9226    1.2274 C.ar      1 <0>        -0.0446 
      27 C19       -0.7262    1.7612    2.2436 C.ar      1 <0>        -0.1261 
      28 C20       -0.3959    1.5099    3.5807 C.ar      1 <0>        -0.0460 
      29 C21       -0.5700    1.1891   -0.2248 C.3       1 <0>        -0.0928 
      30 C22        0.5105    2.0842   -0.8246 C.3       1 <0>        -0.1485 
      31 H1         2.9293    4.9634   10.4829 H         1 <0>         0.0567 
      32 H2         4.4947    4.1416   10.3037 H         1 <0>         0.0554 
      33 H3         3.0182    3.1910   10.5760 H         1 <0>         0.0557 
      34 H4         3.6968    3.0945    8.2037 H         1 <0>         0.0632 
      35 H5         2.1421    3.9369    8.3801 H         1 <0>         0.0635 
      36 H6         3.3136    6.1162    8.2984 H         1 <0>         0.0711 
      37 H7         4.8684    5.2738    8.1220 H         1 <0>         0.0704 
      38 H8         4.0488    5.9859    5.9176 H         1 <0>         0.0498 
      39 H9         4.0225    4.2124    6.0277 H         1 <0>         0.0505 
      40 H10        1.9916    7.1934    6.0911 H         1 <0>         0.0584 
      41 H11        1.6791    6.4253    7.6627 H         1 <0>         0.0702 
      42 H12       -0.0815    5.9737    5.2264 H         1 <0>         0.0872 
      43 H13       -0.3886    7.2592    6.4142 H         1 <0>         0.0805 
      44 H14       -0.9214    4.4190    6.7768 H         1 <0>         0.4058 
      45 H15       -1.6574    5.0502   10.3044 H         1 <0>         0.1008 
      46 H16       -2.3821    4.2546    8.8903 H         1 <0>         0.0999 
      47 H17        1.0343    1.6099   10.8161 H         1 <0>         0.1557 
      48 H18        2.5093   -0.4408   10.5627 H         1 <0>         0.1929 
      49 H19       -0.0692    1.7783    6.1041 H         1 <0>         0.4317 
      50 H20        1.4904   -1.2725    3.1593 H         1 <0>         0.1287 
      51 H21        0.8568   -0.8660    0.8042 H         1 <0>         0.1326 
      52 H22       -1.3524    2.6014    1.9820 H         1 <0>         0.1342 
      53 H23       -0.8379    2.1551    4.3254 H         1 <0>         0.1410 
      54 H24       -1.5354    1.6852   -0.2993 H         1 <0>         0.0777 
      55 H25       -0.6033    0.2464   -0.7670 H         1 <0>         0.0771 
      56 H26        1.4734    1.5817   -0.7608 H         1 <0>         0.0623 
      57 H27        0.5523    3.0209   -0.2726 H         1 <0>         0.0572 
      58 H28        0.2749    2.2870   -1.8672 H         1 <0>         0.0578 
@<TRIPOS>BOND
       1        1        2 1        
       2        1       31 1        
       3        1       32 1        
       4        1       33 1        
       5        2        3 1        
       6        2       34 1        
       7        2       35 1        
       8        3        4 1        
       9        3       36 1        
      10        3       37 1        
      11        4        5 1        
      12        4       38 1        
      13        4       39 1        
      14        5        6 1        
      15        6        7 1        
      16        6       40 1        
      17        6       41 1        
      18        7        8 1        
      19        7       42 1        
      20        7       43 1        
      21        8        9 am       
      22        8       44 1        
      23        9       10 2        
      24        9       11 1        
      25       11       12 1        
      26       11       45 1        
      27       11       46 1        
      28       12       13 1        
      29       13       14 2        
      30       13       15 1        
      31       15       19 2        
      32       15       16 1        
      33       16       17 2        
      34       16       47 1        
      35       17       18 1        
      36       17       48 1        
      37       18       19 1        
      38       19       20 1        
      39       20       21 am       
      40       20       49 1        
      41       21       22 2        
      42       21       23 1        
      43       23       28 ar       
      44       23       24 ar       
      45       24       25 ar       
      46       24       50 1        
      47       25       26 ar       
      48       25       51 1        
      49       26       27 ar       
      50       26       29 1        
      51       27       28 ar       
      52       27       52 1        
      53       28       53 1        
      54       29       30 1        
      55       29       54 1        
      56       29       55 1        
      57       30       56 1        
      58       30       57 1        
      59       30       58 1        

