#        1GCZ_R01_S0001_C0000_L00015_S0001_C0009_G0010_E0001.mol2
#        Tue Jun  6 10:00:10 2017
#        Descriptor:     14    32    27     8    10    13
#        Energy - RMSD - RMSD MassCentre:     -59.0690    999.9999    999.9999
#        Receptor:       1  Surface Point:     1  Conformer:     0
#        Ligand:        15  Surface Point:     1  Conformer:     9
#        BUDE Formal Charge: 0
#        ATOM Count: 53
#        Heavy ATOM Count: 29
@<TRIPOS>MOLECULE
ZINC61646583_1GCZ_R01_S0001_C0000_L00015_S0001_C0009_G0010_E0001
 53 54 0 0 0
SMALL
USER_CHARGES
@<TRIPOS>ATOM
       1 C1         3.0897    5.7668   12.5981 C.3       1 <0>        -0.1727 
       2 C2         2.6128    5.1540   11.3030 C.2       1 <0>         0.5094 
       3 O1         3.2324    5.3582   10.2603 O.2       1 <0>        -0.5291 
       4 N1         1.5221    4.3931   11.2897 N.am      1 <0>        -0.6649 
       5 C3         1.0753    3.8190   10.0761 C.ar      1 <0>         0.0992 
       6 C4         1.7618    4.0206    8.8701 C.ar      1 <0>        -0.0654 
       7 C5         1.2277    3.5385    7.6692 C.ar      1 <0>        -0.1341 
       8 C6         0.0730    2.7471    7.6807 C.ar      1 <0>         0.1883 
       9 C7        -0.5937    2.5276    8.8920 C.ar      1 <0>        -0.2193 
      10 C8        -0.0760    3.0228   10.0947 C.ar      1 <0>         0.1218 
      11 O2        -0.6522    2.7797   11.3136 O.3       1 <0>        -0.3161 
      12 C9        -2.0790    2.8201   11.4009 C.3       1 <0>         0.0284 
      13 N2        -0.3824    2.1565    6.4782 N.am      1 <0>        -0.6855 
      14 C10       -1.4783    1.4030    6.4796 C.2       1 <0>         0.7035 
      15 O3        -2.1067    1.2166    7.5440 O.2       1 <0>        -0.5662 
      16 N3        -1.9051    0.8485    5.3485 N.am      1 <0>        -0.7422 
      17 C11       -1.1652    1.0689    4.0977 C.3       1 <0>         0.1412 
      18 C12       -1.8615    0.3271    2.9576 C.3       1 <0>        -0.0858 
      19 C13       -1.1013    0.5535    1.6726 C.ar      1 <0>        -0.1209 
      20 C14       -1.4107    1.6390    0.8444 C.ar      1 <0>        -0.0699 
      21 C15       -0.6821    1.8704   -0.3285 C.ar      1 <0>        -0.1435 
      22 C16        0.3457    1.0000   -0.6980 C.ar      1 <0>         0.1285 
      23 C17        0.6468   -0.0997    0.1145 C.ar      1 <0>        -0.2085 
      24 C18       -0.0725   -0.3179    1.2956 C.ar      1 <0>        -0.0706 
      25 O4         1.0539    1.2264   -1.8486 O.3       1 <0>        -0.2897 
      26 C19        1.3951    0.0987   -2.6590 C.3       1 <0>         0.0392 
      27 C20        0.1325   -0.5889   -3.1204 C.2       1 <0>         0.5189 
      28 O5        -0.2044   -1.6588   -2.6156 O.2       1 <0>        -0.5163 
      29 N4        -0.6147   -0.0373   -4.0725 N.am      1 <0>        -0.8501 
      30 H1         2.4428    5.4438   13.4111 H         1 <0>         0.0965 
      31 H2         4.1102    5.4456   12.7964 H         1 <0>         0.0914 
      32 H3         3.0592    6.8512   12.5184 H         1 <0>         0.0912 
      33 H4         1.0125    4.2248   12.1453 H         1 <0>         0.4136 
      34 H5         2.7065    4.5437    8.8455 H         1 <0>         0.1501 
      35 H6         1.7148    3.7654    6.7323 H         1 <0>         0.1469 
      36 H7        -1.4979    1.9383    8.8533 H         1 <0>         0.1349 
      37 H8        -2.5036    2.0649   10.7428 H         1 <0>         0.1017 
      38 H9        -2.3847    2.6221   12.4262 H         1 <0>         0.0561 
      39 H10       -2.4324    3.8042   11.1003 H         1 <0>         0.0561 
      40 H11        0.1253    2.3071    5.6182 H         1 <0>         0.4065 
      41 H12       -2.7375    0.2765    5.3496 H         1 <0>         0.3980 
      42 H13       -0.1493    0.6952    4.2074 H         1 <0>         0.0719 
      43 H14       -1.1386    2.1337    3.8755 H         1 <0>         0.0706 
      44 H15       -2.8773    0.7011    2.8495 H         1 <0>         0.0792 
      45 H16       -1.8881   -0.7373    3.1813 H         1 <0>         0.0805 
      46 H17       -2.2138    2.3144    1.0996 H         1 <0>         0.1321 
      47 H18       -0.9126    2.7167   -0.9585 H         1 <0>         0.1348 
      48 H19        1.4384   -0.7756   -0.1733 H         1 <0>         0.1285 
      49 H20        0.1813   -1.1706    1.9079 H         1 <0>         0.1266 
      50 H21        1.9957   -0.5970   -2.0768 H         1 <0>         0.0957 
      51 H22        1.9636    0.4335   -3.5242 H         1 <0>         0.0953 
      52 H23       -0.3372    0.8414   -4.4862 H         1 <0>         0.4036 
      53 H24       -1.4593   -0.4970   -4.3810 H         1 <0>         0.4104 
@<TRIPOS>BOND
       1        1        2 1        
       2        1       30 1        
       3        1       31 1        
       4        1       32 1        
       5        2        3 2        
       6        2        4 am       
       7        4        5 1        
       8        4       33 1        
       9        5       10 ar       
      10        5        6 ar       
      11        6        7 ar       
      12        6       34 1        
      13        7        8 ar       
      14        7       35 1        
      15        8        9 ar       
      16        8       13 1        
      17        9       10 ar       
      18        9       36 1        
      19       10       11 1        
      20       11       12 1        
      21       12       37 1        
      22       12       38 1        
      23       12       39 1        
      24       13       14 am       
      25       13       40 1        
      26       14       15 2        
      27       14       16 am       
      28       16       17 1        
      29       16       41 1        
      30       17       18 1        
      31       17       42 1        
      32       17       43 1        
      33       18       19 1        
      34       18       44 1        
      35       18       45 1        
      36       19       24 ar       
      37       19       20 ar       
      38       20       21 ar       
      39       20       46 1        
      40       21       22 ar       
      41       21       47 1        
      42       22       23 ar       
      43       22       25 1        
      44       23       24 ar       
      45       23       48 1        
      46       24       49 1        
      47       25       26 1        
      48       26       27 1        
      49       26       50 1        
      50       26       51 1        
      51       27       28 2        
      52       27       29 am       
      53       29       52 1        
      54       29       53 1        

