#        1GCZ_R01_S0001_C0000_L00015_S0001_C0009_G0010_E0001.mol2
#        Tue Jun  6 14:16:33 2017
#        Descriptor:     23    19    21    14     9    13
#        Energy - RMSD - RMSD MassCentre:     -66.4654    999.9999    999.9999
#        Receptor:       1  Surface Point:     1  Conformer:     0
#        Ligand:        15  Surface Point:     1  Conformer:     9
#        BUDE Formal Charge: 0
#        ATOM Count: 53
#        Heavy ATOM Count: 29
@<TRIPOS>MOLECULE
ZINC61646583_1GCZ_R01_S0001_C0000_L00015_S0001_C0009_G0010_E0001
 53 54 0 0 0
SMALL
USER_CHARGES
@<TRIPOS>ATOM
       1 C1        -2.7906   -0.1501    3.3064 C.3       1 <0>        -0.1727 
       2 C2        -1.3094    0.0142    3.5499 C.2       1 <0>         0.5094 
       3 O1        -0.4994   -0.5920    2.8506 O.2       1 <0>        -0.5291 
       4 N1        -0.8805    0.8149    4.5214 N.am      1 <0>        -0.6649 
       5 C3         0.5074    0.9688    4.7496 C.ar      1 <0>         0.0992 
       6 C4         1.4604    0.3026    3.9657 C.ar      1 <0>        -0.0654 
       7 C5         2.8190    0.3826    4.2936 C.ar      1 <0>        -0.1341 
       8 C6         3.2447    1.2259    5.3267 C.ar      1 <0>         0.1883 
       9 C7         2.2898    1.9089    6.0893 C.ar      1 <0>        -0.2193 
      10 C8         0.9276    1.8188    5.7796 C.ar      1 <0>         0.1218 
      11 O2        -0.0402    2.5187    6.4507 O.3       1 <0>        -0.3161 
      12 C9         0.0796    2.6351    7.8710 C.3       1 <0>         0.0284 
      13 N2         4.6291    1.3999    5.5623 N.am      1 <0>        -0.6855 
      14 C10        5.0427    2.1992    6.5416 C.2       1 <0>         0.7035 
      15 O3         4.2078    2.7971    7.2544 O.2       1 <0>        -0.5662 
      16 N3         6.3442    2.3617    6.7619 N.am      1 <0>        -0.7422 
      17 C11        7.3246    1.6577    5.9229 C.3       1 <0>         0.1412 
      18 C12        8.7371    2.0154    6.3827 C.3       1 <0>        -0.0858 
      19 C13        9.7443    1.2922    5.5207 C.ar      1 <0>        -0.1209 
      20 C14       10.2018    0.0180    5.8774 C.ar      1 <0>        -0.0699 
      21 C15       11.1077   -0.6682    5.0597 C.ar      1 <0>        -0.1435 
      22 C16       11.5861   -0.0728    3.8905 C.ar      1 <0>         0.1285 
      23 C17       11.1493    1.2099    3.5384 C.ar      1 <0>        -0.2085 
      24 C18       10.2300    1.8859    4.3496 C.ar      1 <0>        -0.0706 
      25 O4        12.4760   -0.7449    3.0948 O.3       1 <0>        -0.2897 
      26 C19       13.5537   -0.0025    2.5182 C.3       1 <0>         0.0392 
      27 C20       14.4015    0.5892    3.6187 C.2       1 <0>         0.5189 
      28 O5        14.3372    1.7927    3.8645 O.2       1 <0>        -0.5163 
      29 N4        15.2173   -0.1914    4.3217 N.am      1 <0>        -0.8501 
      30 H1        -3.3433    0.4897    3.9913 H         1 <0>         0.0965 
      31 H2        -3.0221    0.1300    2.2808 H         1 <0>         0.0914 
      32 H3        -3.0718   -1.1879    3.4718 H         1 <0>         0.0912 
      33 H4        -1.5447    1.3132    5.0963 H         1 <0>         0.4136 
      34 H5         1.1676   -0.2764    3.1023 H         1 <0>         0.1501 
      35 H6         3.5429   -0.1966    3.7395 H         1 <0>         0.1469 
      36 H7         2.6574    2.5244    6.8970 H         1 <0>         0.1349 
      37 H8         1.0071    3.1490    8.1152 H         1 <0>         0.1017 
      38 H9        -0.7634    3.2022    8.2601 H         1 <0>         0.0561 
      39 H10        0.0861    1.6425    8.3164 H         1 <0>         0.0561 
      40 H11        5.3036    0.9168    4.9864 H         1 <0>         0.4065 
      41 H12        6.6582    2.9685    7.5057 H         1 <0>         0.3980 
      42 H13        7.1937    1.9565    4.8850 H         1 <0>         0.0719 
      43 H14        7.1740    0.5839    6.0136 H         1 <0>         0.0706 
      44 H15        8.8665    1.7168    7.4208 H         1 <0>         0.0792 
      45 H16        8.8862    3.0893    6.2923 H         1 <0>         0.0805 
      46 H17        9.8607   -0.4544    6.7866 H         1 <0>         0.1321 
      47 H18       11.4481   -1.6571    5.3290 H         1 <0>         0.1348 
      48 H19       11.5226    1.6726    2.6368 H         1 <0>         0.1285 
      49 H20        9.9047    2.8725    4.0546 H         1 <0>         0.1266 
      50 H21       13.1521    0.7971    1.8992 H         1 <0>         0.0957 
      51 H22       14.1628   -0.6646    1.9064 H         1 <0>         0.0953 
      52 H23       15.2692   -1.1795    4.1191 H         1 <0>         0.4036 
      53 H24       15.7842    0.2043    5.0579 H         1 <0>         0.4104 
@<TRIPOS>BOND
       1        1        2 1        
       2        1       30 1        
       3        1       31 1        
       4        1       32 1        
       5        2        3 2        
       6        2        4 am       
       7        4        5 1        
       8        4       33 1        
       9        5       10 ar       
      10        5        6 ar       
      11        6        7 ar       
      12        6       34 1        
      13        7        8 ar       
      14        7       35 1        
      15        8        9 ar       
      16        8       13 1        
      17        9       10 ar       
      18        9       36 1        
      19       10       11 1        
      20       11       12 1        
      21       12       37 1        
      22       12       38 1        
      23       12       39 1        
      24       13       14 am       
      25       13       40 1        
      26       14       15 2        
      27       14       16 am       
      28       16       17 1        
      29       16       41 1        
      30       17       18 1        
      31       17       42 1        
      32       17       43 1        
      33       18       19 1        
      34       18       44 1        
      35       18       45 1        
      36       19       24 ar       
      37       19       20 ar       
      38       20       21 ar       
      39       20       46 1        
      40       21       22 ar       
      41       21       47 1        
      42       22       23 ar       
      43       22       25 1        
      44       23       24 ar       
      45       23       48 1        
      46       24       49 1        
      47       25       26 1        
      48       26       27 1        
      49       26       50 1        
      50       26       51 1        
      51       27       28 2        
      52       27       29 am       
      53       29       52 1        
      54       29       53 1        

