#        1GCZ_R01_S0001_C0000_L00015_S0001_C0012_G0010_E0001.mol2
#        Tue Jun  6 10:00:12 2017
#        Descriptor:     11    22    36     9    11    13
#        Energy - RMSD - RMSD MassCentre:     -70.1385    999.9999    999.9999
#        Receptor:       1  Surface Point:     1  Conformer:     0
#        Ligand:        15  Surface Point:     1  Conformer:    12
#        BUDE Formal Charge: 0
#        ATOM Count: 53
#        Heavy ATOM Count: 29
@<TRIPOS>MOLECULE
ZINC61646583_1GCZ_R01_S0001_C0000_L00015_S0001_C0012_G0010_E0001
 53 54 0 0 0
SMALL
USER_CHARGES
@<TRIPOS>ATOM
       1 C1         4.7573    7.5459   11.8987 C.3       1 <0>        -0.1727 
       2 C2         3.5802    6.8338   11.2762 C.2       1 <0>         0.5094 
       3 O1         2.4698    6.9054   11.8002 O.2       1 <0>        -0.5291 
       4 N1         3.7444    6.1287   10.1605 N.am      1 <0>        -0.6649 
       5 C3         2.6414    5.4614    9.5772 C.ar      1 <0>         0.0992 
       6 C4         1.3588    5.5292   10.1399 C.ar      1 <0>        -0.0654 
       7 C5         0.3166    4.7616    9.6065 C.ar      1 <0>        -0.1341 
       8 C6         0.5170    4.0204    8.4360 C.ar      1 <0>         0.1883 
       9 C7         1.7940    3.9775    7.8639 C.ar      1 <0>        -0.2193 
      10 C8         2.8461    4.7274    8.4028 C.ar      1 <0>         0.1218 
      11 O2         4.0956    4.7734    7.8430 O.3       1 <0>        -0.3161 
      12 C9         4.1898    4.8472    6.4180 C.3       1 <0>         0.0284 
      13 N2        -0.5768    3.3553    7.8332 N.am      1 <0>        -0.6855 
      14 C10       -0.3958    2.6489    6.7209 C.2       1 <0>         0.7035 
      15 O3         0.7415    2.5723    6.2078 O.2       1 <0>        -0.5662 
      16 N3        -1.4249    2.0242    6.1554 N.am      1 <0>        -0.7422 
      17 C11       -1.2248    1.2433    4.9262 C.3       1 <0>         0.1412 
      18 C12       -0.7673    2.1724    3.8026 C.3       1 <0>        -0.0858 
      19 C13       -0.5618    1.3703    2.5399 C.ar      1 <0>        -0.1209 
      20 C14        0.6830    0.7957    2.2564 C.ar      1 <0>        -0.0699 
      21 C15        0.8642    0.0215    1.1040 C.ar      1 <0>        -0.1435 
      22 C16       -0.1926   -0.1617    0.2096 C.ar      1 <0>         0.1285 
      23 C17       -1.4344    0.4274    0.4759 C.ar      1 <0>        -0.2085 
      24 C18       -1.6167    1.1866    1.6381 C.ar      1 <0>        -0.0706 
      25 O4        -0.0111   -0.9161   -0.9194 O.3       1 <0>        -0.2897 
      26 C19       -0.6050   -0.4561   -2.1361 C.3       1 <0>         0.0392 
      27 C20       -0.0393    0.8984   -2.4906 C.2       1 <0>         0.5189 
      28 O5        -0.7225    1.9095   -2.3357 O.2       1 <0>        -0.5163 
      29 N4         1.1974    0.9974   -2.9700 N.am      1 <0>        -0.8501 
      30 H1         5.6383    7.4009   11.2770 H         1 <0>         0.0965 
      31 H2         4.5380    8.6089   11.9756 H         1 <0>         0.0914 
      32 H3         4.9422    7.1404   12.8911 H         1 <0>         0.0912 
      33 H4         4.6557    6.0692    9.7293 H         1 <0>         0.4136 
      34 H5         1.1523    6.1698   10.9847 H         1 <0>         0.1501 
      35 H6        -0.6488    4.7517   10.0906 H         1 <0>         0.1469 
      36 H7         1.9141    3.3691    6.9797 H         1 <0>         0.1349 
      37 H8         3.7011    5.7547    6.0695 H         1 <0>         0.1017 
      38 H9         5.2374    4.8633    6.1247 H         1 <0>         0.0561 
      39 H10        3.7026    3.9800    5.9775 H         1 <0>         0.0561 
      40 H11       -1.4957    3.4171    8.2477 H         1 <0>         0.4065 
      41 H12       -2.3433    2.0866    6.5710 H         1 <0>         0.3980 
      42 H13       -2.1608    0.7658    4.6443 H         1 <0>         0.0719 
      43 H14       -0.4666    0.4826    5.0999 H         1 <0>         0.0706 
      44 H15        0.1682    2.6499    4.0861 H         1 <0>         0.0792 
      45 H16       -1.5258    2.9330    3.6305 H         1 <0>         0.0805 
      46 H17        1.5201    0.9396    2.9232 H         1 <0>         0.1321 
      47 H18        1.8212   -0.4331    0.8945 H         1 <0>         0.1348 
      48 H19       -2.2507    0.2899   -0.2178 H         1 <0>         0.1285 
      49 H20       -2.5851    1.6273    1.8237 H         1 <0>         0.1266 
      50 H21       -1.6822   -0.3771   -2.0059 H         1 <0>         0.0957 
      51 H22       -0.3862   -1.1614   -2.9351 H         1 <0>         0.0953 
      52 H23        1.5757    1.9033   -3.2070 H         1 <0>         0.4036 
      53 H24        1.7574    0.1665   -3.0968 H         1 <0>         0.4104 
@<TRIPOS>BOND
       1        1        2 1        
       2        1       30 1        
       3        1       31 1        
       4        1       32 1        
       5        2        3 2        
       6        2        4 am       
       7        4        5 1        
       8        4       33 1        
       9        5       10 ar       
      10        5        6 ar       
      11        6        7 ar       
      12        6       34 1        
      13        7        8 ar       
      14        7       35 1        
      15        8        9 ar       
      16        8       13 1        
      17        9       10 ar       
      18        9       36 1        
      19       10       11 1        
      20       11       12 1        
      21       12       37 1        
      22       12       38 1        
      23       12       39 1        
      24       13       14 am       
      25       13       40 1        
      26       14       15 2        
      27       14       16 am       
      28       16       17 1        
      29       16       41 1        
      30       17       18 1        
      31       17       42 1        
      32       17       43 1        
      33       18       19 1        
      34       18       44 1        
      35       18       45 1        
      36       19       24 ar       
      37       19       20 ar       
      38       20       21 ar       
      39       20       46 1        
      40       21       22 ar       
      41       21       47 1        
      42       22       23 ar       
      43       22       25 1        
      44       23       24 ar       
      45       23       48 1        
      46       24       49 1        
      47       25       26 1        
      48       26       27 1        
      49       26       50 1        
      50       26       51 1        
      51       27       28 2        
      52       27       29 am       
      53       29       52 1        
      54       29       53 1        

