#        1GCZ_R01_S0001_C0000_L00003_S0001_C0029_G0010_E0001.mol2
#        Tue Jun  6 14:04:25 2017
#        Descriptor:     36    35    28    10     8    13
#        Energy - RMSD - RMSD MassCentre:     -67.1500    999.9999    999.9999
#        Receptor:       1  Surface Point:     1  Conformer:     0
#        Ligand:         3  Surface Point:     1  Conformer:    29
#        BUDE Formal Charge: 0
#        ATOM Count: 58
#        Heavy ATOM Count: 30
@<TRIPOS>MOLECULE
ZINC61580633_1GCZ_R01_S0001_C0000_L00003_S0001_C0029_G0010_E0001
 58 59 0 0 0
SMALL
USER_CHARGES
@<TRIPOS>ATOM
       1 C1         3.2218   -1.6092    9.4451 C.3       1 <0>        -0.1532 
       2 C2         2.7942   -1.7355    7.9856 C.3       1 <0>        -0.1224 
       3 C3         3.4763   -2.9510    7.3594 C.3       1 <0>        -0.1198 
       4 C4         3.0481   -3.0774    5.8981 C.3       1 <0>         0.0610 
       5 O1         3.4907   -1.9281    5.1714 O.3       1 <0>        -0.3878 
       6 C5         4.9143   -1.7956    5.1958 C.3       1 <0>         0.0487 
       7 C6         5.3230   -0.5535    4.4052 C.3       1 <0>         0.1244 
       8 N1         4.9555    0.6513    5.1628 N.am      1 <0>        -0.7216 
       9 C7         5.6367    0.9823    6.2562 C.2       1 <0>         0.5161 
      10 O2         6.5737    0.2809    6.6338 O.2       1 <0>        -0.5151 
      11 C8         5.2592    2.2200    7.0345 C.3       1 <0>         0.0490 
      12 O3         4.0002    2.0110    7.6794 O.3       1 <0>        -0.3194 
      13 C9         2.9166    1.8043    6.9012 C.2       1 <0>         0.5417 
      14 O4         3.0290    1.7997    5.6864 O.2       1 <0>        -0.5337 
      15 C10        1.5916    1.5832    7.5220 C.2       1 <0>        -0.2559 
      16 C11        1.3459    1.5554    8.9812 C.2       1 <0>        -0.0791 
      17 C12        0.0647    1.3244    9.2770 C.2       1 <0>        -0.2585 
      18 S1        -0.9441    1.1289    7.8360 S.3       1 <0>         0.3028 
      19 C13        0.4768    1.3722    6.8091 C.2       1 <0>         0.0893 
      20 N2         0.4809    1.3453    5.4393 N.am      1 <0>        -0.6099 
      21 C14       -0.6509    1.1322    4.7741 C.2       1 <0>         0.5551 
      22 O5        -1.7020    0.9594    5.3890 O.2       1 <0>        -0.4939 
      23 C15       -0.6447    1.1035    3.2944 C.ar      1 <0>        -0.1466 
      24 C16       -1.8579    0.8730    2.6348 C.ar      1 <0>        -0.0772 
      25 C17       -1.9032    0.7614    1.2401 C.ar      1 <0>        -0.1241 
      26 C18       -0.7333    0.8681    0.4791 C.ar      1 <0>        -0.0446 
      27 C19        0.4727    1.1514    1.1314 C.ar      1 <0>        -0.1261 
      28 C20        0.5089    1.2913    2.5239 C.ar      1 <0>        -0.0460 
      29 C21       -0.7937    0.6829   -1.0184 C.3       1 <0>        -0.0928 
      30 C22       -0.5719   -0.7882   -1.3574 C.3       1 <0>        -0.1485 
      31 H1         4.3001   -1.4733    9.4959 H         1 <0>         0.0567 
      32 H2         2.9438   -2.5129    9.9832 H         1 <0>         0.0554 
      33 H3         2.7258   -0.7516    9.8946 H         1 <0>         0.0557 
      34 H4         1.7145   -1.8588    7.9328 H         1 <0>         0.0632 
      35 H5         3.0843   -0.8381    7.4431 H         1 <0>         0.0635 
      36 H6         4.5560   -2.8284    7.4110 H         1 <0>         0.0711 
      37 H7         3.1862   -3.8492    7.9006 H         1 <0>         0.0704 
      38 H8         3.4915   -3.9720    5.4656 H         1 <0>         0.0498 
      39 H9         1.9637   -3.1458    5.8418 H         1 <0>         0.0505 
      40 H10        5.3690   -2.6762    4.7471 H         1 <0>         0.0584 
      41 H11        5.2524   -1.6968    6.2253 H         1 <0>         0.0702 
      42 H12        4.8098   -0.5485    3.4460 H         1 <0>         0.0872 
      43 H13        6.3986   -0.5646    4.2419 H         1 <0>         0.0805 
      44 H14        4.1862    1.2280    4.8537 H         1 <0>         0.4058 
      45 H15        6.0206    2.4239    7.7844 H         1 <0>         0.1008 
      46 H16        5.1820    3.0666    6.3555 H         1 <0>         0.0999 
      47 H17        2.1285    1.7186    9.7072 H         1 <0>         0.1557 
      48 H18       -0.3026    1.2783   10.2915 H         1 <0>         0.1929 
      49 H19        1.3440    1.4872    4.9344 H         1 <0>         0.4317 
      50 H20       -2.7692    0.7754    3.2061 H         1 <0>         0.1287 
      51 H21       -2.8458    0.5897    0.7418 H         1 <0>         0.1326 
      52 H22        1.3727    1.2643    0.5452 H         1 <0>         0.1342 
      53 H23        1.4549    1.5680    2.9653 H         1 <0>         0.1410 
      54 H24       -0.0194    1.2850   -1.4891 H         1 <0>         0.0777 
      55 H25       -1.7696    0.9967   -1.3829 H         1 <0>         0.0771 
      56 H26       -1.3539   -1.3879   -0.8965 H         1 <0>         0.0623 
      57 H27        0.3984   -1.1045   -0.9800 H         1 <0>         0.0572 
      58 H28       -0.6022   -0.9194   -2.4370 H         1 <0>         0.0578 
@<TRIPOS>BOND
       1        1        2 1        
       2        1       31 1        
       3        1       32 1        
       4        1       33 1        
       5        2        3 1        
       6        2       34 1        
       7        2       35 1        
       8        3        4 1        
       9        3       36 1        
      10        3       37 1        
      11        4        5 1        
      12        4       38 1        
      13        4       39 1        
      14        5        6 1        
      15        6        7 1        
      16        6       40 1        
      17        6       41 1        
      18        7        8 1        
      19        7       42 1        
      20        7       43 1        
      21        8        9 am       
      22        8       44 1        
      23        9       10 2        
      24        9       11 1        
      25       11       12 1        
      26       11       45 1        
      27       11       46 1        
      28       12       13 1        
      29       13       14 2        
      30       13       15 1        
      31       15       19 2        
      32       15       16 1        
      33       16       17 2        
      34       16       47 1        
      35       17       18 1        
      36       17       48 1        
      37       18       19 1        
      38       19       20 1        
      39       20       21 am       
      40       20       49 1        
      41       21       22 2        
      42       21       23 1        
      43       23       28 ar       
      44       23       24 ar       
      45       24       25 ar       
      46       24       50 1        
      47       25       26 ar       
      48       25       51 1        
      49       26       27 ar       
      50       26       29 1        
      51       27       28 ar       
      52       27       52 1        
      53       28       53 1        
      54       29       30 1        
      55       29       54 1        
      56       29       55 1        
      57       30       56 1        
      58       30       57 1        
      59       30       58 1        

