#        1GCZ_R01_S0001_C0000_L00015_S0001_C0014_G0010_E0001.mol2
#        Tue Jun  6 10:00:14 2017
#        Descriptor:     16    18    35    15     9    12
#        Energy - RMSD - RMSD MassCentre:     -65.2246    999.9999    999.9999
#        Receptor:       1  Surface Point:     1  Conformer:     0
#        Ligand:        15  Surface Point:     1  Conformer:    14
#        BUDE Formal Charge: 0
#        ATOM Count: 53
#        Heavy ATOM Count: 29
@<TRIPOS>MOLECULE
ZINC61646583_1GCZ_R01_S0001_C0000_L00015_S0001_C0014_G0010_E0001
 53 54 0 0 0
SMALL
USER_CHARGES
@<TRIPOS>ATOM
       1 C1        15.5335    2.8028    1.6949 C.3       1 <0>        -0.1727 
       2 C2        14.2091    2.7891    2.4202 C.2       1 <0>         0.5094 
       3 O1        13.8594    3.7649    3.0822 O.2       1 <0>        -0.5291 
       4 N1        13.4203    1.7211    2.3432 N.am      1 <0>        -0.6649 
       5 C3        12.1793    1.7083    3.0228 C.ar      1 <0>         0.0992 
       6 C4        11.7425    2.8062    3.7779 C.ar      1 <0>        -0.0654 
       7 C5        10.5677    2.7156    4.5339 C.ar      1 <0>        -0.1341 
       8 C6         9.7588    1.5767    4.4426 C.ar      1 <0>         0.1883 
       9 C7        10.1877    0.4937    3.6660 C.ar      1 <0>        -0.2193 
      10 C8        11.3713    0.5695    2.9223 C.ar      1 <0>         0.1218 
      11 O2        11.8007   -0.4346    2.0951 O.3       1 <0>        -0.3161 
      12 C9        10.8247   -1.1105    1.2980 C.3       1 <0>         0.0284 
      13 N2         8.5098    1.5505    5.1072 N.am      1 <0>        -0.6855 
      14 C10        7.7346    0.4729    5.0258 C.2       1 <0>         0.7035 
      15 O3         8.1097   -0.5177    4.3619 O.2       1 <0>        -0.5662 
      16 N3         6.5610    0.4497    5.6511 N.am      1 <0>        -0.7422 
      17 C11        6.1215    1.6152    6.4316 C.3       1 <0>         0.1412 
      18 C12        4.7502    1.3303    7.0423 C.3       1 <0>        -0.0858 
      19 C13        3.7399    1.1309    5.9379 C.ar      1 <0>        -0.1209 
      20 C14        3.0258    2.2188    5.4215 C.ar      1 <0>        -0.0699 
      21 C15        2.1157    2.0402    4.3727 C.ar      1 <0>        -0.1435 
      22 C16        1.8914    0.7650    3.8493 C.ar      1 <0>         0.1285 
      23 C17        2.5863   -0.3307    4.3747 C.ar      1 <0>        -0.2085 
      24 C18        3.5083   -0.1457    5.4120 C.ar      1 <0>        -0.0706 
      25 O4         0.9970    0.5927    2.8260 O.3       1 <0>        -0.2897 
      26 C19        0.1430   -0.5536    2.8675 C.3       1 <0>         0.0392 
      27 C20       -0.7107   -0.4993    4.1117 C.2       1 <0>         0.5189 
      28 O5        -0.4643   -1.2440    5.0591 O.2       1 <0>        -0.5163 
      29 N4        -1.7288    0.3536    4.1825 N.am      1 <0>        -0.8501 
      30 H1        15.6496    1.8767    1.1359 H         1 <0>         0.0965 
      31 H2        15.5619    3.6471    1.0091 H         1 <0>         0.0914 
      32 H3        16.3412    2.8946    2.4178 H         1 <0>         0.0912 
      33 H4        13.7064    0.9192    1.7999 H         1 <0>         0.4136 
      34 H5        12.2968    3.7332    3.7885 H         1 <0>         0.1501 
      35 H6        10.2766    3.5316    5.1788 H         1 <0>         0.1469 
      36 H7         9.5504   -0.3780    3.6472 H         1 <0>         0.1349 
      37 H8        10.3430   -0.3965    0.6331 H         1 <0>         0.1017 
      38 H9        11.3117   -1.8844    0.7084 H         1 <0>         0.0561 
      39 H10       10.0783   -1.5638    1.9468 H         1 <0>         0.0561 
      40 H11        8.2068    2.3508    5.6436 H         1 <0>         0.4065 
      41 H12        5.9724   -0.3687    5.5895 H         1 <0>         0.3980 
      42 H13        6.0556    2.4836    5.7794 H         1 <0>         0.0719 
      43 H14        6.8393    1.8108    7.2256 H         1 <0>         0.0706 
      44 H15        4.4485    2.1714    7.6630 H         1 <0>         0.0792 
      45 H16        4.8050    0.4306    7.6513 H         1 <0>         0.0805 
      46 H17        3.1682    3.2111    5.8232 H         1 <0>         0.1321 
      47 H18        1.5766    2.8830    3.9659 H         1 <0>         0.1348 
      48 H19        2.4097   -1.3178    3.9735 H         1 <0>         0.1285 
      49 H20        4.0354   -1.0058    5.7976 H         1 <0>         0.1266 
      50 H21        0.7497   -1.4566    2.8822 H         1 <0>         0.0957 
      51 H22       -0.4970   -0.5602    1.9877 H         1 <0>         0.0953 
      52 H23       -2.2998    0.3900    5.0147 H         1 <0>         0.4036 
      53 H24       -1.9303    0.9646    3.4038 H         1 <0>         0.4104 
@<TRIPOS>BOND
       1        1        2 1        
       2        1       30 1        
       3        1       31 1        
       4        1       32 1        
       5        2        3 2        
       6        2        4 am       
       7        4        5 1        
       8        4       33 1        
       9        5       10 ar       
      10        5        6 ar       
      11        6        7 ar       
      12        6       34 1        
      13        7        8 ar       
      14        7       35 1        
      15        8        9 ar       
      16        8       13 1        
      17        9       10 ar       
      18        9       36 1        
      19       10       11 1        
      20       11       12 1        
      21       12       37 1        
      22       12       38 1        
      23       12       39 1        
      24       13       14 am       
      25       13       40 1        
      26       14       15 2        
      27       14       16 am       
      28       16       17 1        
      29       16       41 1        
      30       17       18 1        
      31       17       42 1        
      32       17       43 1        
      33       18       19 1        
      34       18       44 1        
      35       18       45 1        
      36       19       24 ar       
      37       19       20 ar       
      38       20       21 ar       
      39       20       46 1        
      40       21       22 ar       
      41       21       47 1        
      42       22       23 ar       
      43       22       25 1        
      44       23       24 ar       
      45       23       48 1        
      46       24       49 1        
      47       25       26 1        
      48       26       27 1        
      49       26       50 1        
      50       26       51 1        
      51       27       28 2        
      52       27       29 am       
      53       29       52 1        
      54       29       53 1        

