#        1GCZ_R01_S0001_C0000_L00015_S0001_C0014_G0010_E0001.mol2
#        Tue Jun  6 14:16:42 2017
#        Descriptor:     36    36    17    14     9    13
#        Energy - RMSD - RMSD MassCentre:     -61.0421    999.9999    999.9999
#        Receptor:       1  Surface Point:     1  Conformer:     0
#        Ligand:        15  Surface Point:     1  Conformer:    14
#        BUDE Formal Charge: 0
#        ATOM Count: 53
#        Heavy ATOM Count: 29
@<TRIPOS>MOLECULE
ZINC61646583_1GCZ_R01_S0001_C0000_L00015_S0001_C0014_G0010_E0001
 53 54 0 0 0
SMALL
USER_CHARGES
@<TRIPOS>ATOM
       1 C1        14.3625    1.8329    1.7199 C.3       1 <0>        -0.1727 
       2 C2        13.0837    2.0780    2.4847 C.2       1 <0>         0.5094 
       3 O1        12.7639    3.2233    2.7989 O.2       1 <0>        -0.5291 
       4 N1        12.3027    1.0547    2.8189 N.am      1 <0>        -0.6649 
       5 C3        11.1045    1.2843    3.5356 C.ar      1 <0>         0.0992 
       6 C4        10.7021    2.5769    3.9013 C.ar      1 <0>        -0.0654 
       7 C5         9.5752    2.7583    4.7120 C.ar      1 <0>        -0.1341 
       8 C6         8.7741    1.6636    5.0578 C.ar      1 <0>         0.1883 
       9 C7         9.1673    0.3780    4.6674 C.ar      1 <0>        -0.2193 
      10 C8        10.3037    0.1866    3.8727 C.ar      1 <0>         0.1218 
      11 O2        10.6937   -1.0418    3.4081 O.3       1 <0>        -0.3161 
      12 C9         9.6791   -1.9366    2.9446 C.3       1 <0>         0.0284 
      13 N2         7.5672    1.8757    5.7653 N.am      1 <0>        -0.6855 
      14 C10        6.7996    0.8416    6.0979 C.2       1 <0>         0.7035 
      15 O3         7.1448   -0.3184    5.7854 O.2       1 <0>        -0.5662 
      16 N3         5.6655    1.0425    6.7630 N.am      1 <0>        -0.7422 
      17 C11        5.2611    2.4073    7.1299 C.3       1 <0>         0.1412 
      18 C12        3.9316    2.3589    7.8812 C.3       1 <0>        -0.0858 
      19 C13        2.8596    1.8096    6.9705 C.ar      1 <0>        -0.1209 
      20 C14        2.1049    2.6673    6.1613 C.ar      1 <0>        -0.0699 
      21 C15        1.1360    2.1553    5.2899 C.ar      1 <0>        -0.1435 
      22 C16        0.8941    0.7807    5.2409 C.ar      1 <0>         0.1285 
      23 C17        1.6303   -0.0811    6.0625 C.ar      1 <0>        -0.2085 
      24 C18        2.6103    0.4329    6.9201 C.ar      1 <0>        -0.0706 
      25 O4        -0.0576    0.2830    4.3905 O.3       1 <0>        -0.2897 
      26 C19       -0.8957   -0.7735    4.8663 C.3       1 <0>         0.0392 
      27 C20       -1.6746   -0.2945    6.0679 C.2       1 <0>         0.5189 
      28 O5        -1.3646   -0.6791    7.1944 O.2       1 <0>        -0.5163 
      29 N4        -2.6954    0.5429    5.9076 N.am      1 <0>        -0.8501 
      30 H1        14.4548    0.7715    1.4996 H         1 <0>         0.0965 
      31 H2        14.3414    2.3965    0.7894 H         1 <0>         0.0914 
      32 H3        15.2107    2.1545    2.3203 H         1 <0>         0.0912 
      33 H4        12.5643    0.1138    2.5615 H         1 <0>         0.4136 
      34 H5        11.2464    3.4475    3.5661 H         1 <0>         0.1501 
      35 H6         9.3145    3.7468    5.0604 H         1 <0>         0.1469 
      36 H7         8.5390   -0.4425    4.9811 H         1 <0>         0.1349 
      37 H8         9.1513   -1.4834    2.1080 H         1 <0>         0.1017 
      38 H9        10.1381   -2.8689    2.6224 H         1 <0>         0.0561 
      39 H10        8.9772   -2.1371    3.7513 H         1 <0>         0.0561 
      40 H11        7.2883    2.8129    6.0178 H         1 <0>         0.4065 
      41 H12        5.0828    0.2573    7.0157 H         1 <0>         0.3980 
      42 H13        5.1477    3.0059    6.2285 H         1 <0>         0.0719 
      43 H14        6.0228    2.8515    7.7675 H         1 <0>         0.0706 
      44 H15        3.6587    3.3630    8.1991 H         1 <0>         0.0792 
      45 H16        4.0317    1.7164    8.7533 H         1 <0>         0.0805 
      46 H17        2.2607    3.7354    6.1961 H         1 <0>         0.1321 
      47 H18        0.5650    2.8173    4.6558 H         1 <0>         0.1348 
      48 H19        1.4404   -1.1438    6.0284 H         1 <0>         0.1285 
      49 H20        3.1682   -0.2524    7.5409 H         1 <0>         0.1266 
      50 H21       -0.2800   -1.6250    5.1483 H         1 <0>         0.0957 
      51 H22       -1.5868   -1.0694    4.0798 H         1 <0>         0.0953 
      52 H23       -3.2164    0.8633    6.7113 H         1 <0>         0.4036 
      53 H24       -2.9491    0.8579    4.9821 H         1 <0>         0.4104 
@<TRIPOS>BOND
       1        1        2 1        
       2        1       30 1        
       3        1       31 1        
       4        1       32 1        
       5        2        3 2        
       6        2        4 am       
       7        4        5 1        
       8        4       33 1        
       9        5       10 ar       
      10        5        6 ar       
      11        6        7 ar       
      12        6       34 1        
      13        7        8 ar       
      14        7       35 1        
      15        8        9 ar       
      16        8       13 1        
      17        9       10 ar       
      18        9       36 1        
      19       10       11 1        
      20       11       12 1        
      21       12       37 1        
      22       12       38 1        
      23       12       39 1        
      24       13       14 am       
      25       13       40 1        
      26       14       15 2        
      27       14       16 am       
      28       16       17 1        
      29       16       41 1        
      30       17       18 1        
      31       17       42 1        
      32       17       43 1        
      33       18       19 1        
      34       18       44 1        
      35       18       45 1        
      36       19       24 ar       
      37       19       20 ar       
      38       20       21 ar       
      39       20       46 1        
      40       21       22 ar       
      41       21       47 1        
      42       22       23 ar       
      43       22       25 1        
      44       23       24 ar       
      45       23       48 1        
      46       24       49 1        
      47       25       26 1        
      48       26       27 1        
      49       26       50 1        
      50       26       51 1        
      51       27       28 2        
      52       27       29 am       
      53       29       52 1        
      54       29       53 1        

