#        1GCZ_R01_S0001_C0000_L00015_S0001_C0015_G0010_E0001.mol2
#        Tue Jun  6 10:00:15 2017
#        Descriptor:     11    14    25    15     4    11
#        Energy - RMSD - RMSD MassCentre:     -56.5769    999.9999    999.9999
#        Receptor:       1  Surface Point:     1  Conformer:     0
#        Ligand:        15  Surface Point:     1  Conformer:    15
#        BUDE Formal Charge: 0
#        ATOM Count: 53
#        Heavy ATOM Count: 29
@<TRIPOS>MOLECULE
ZINC61646583_1GCZ_R01_S0001_C0000_L00015_S0001_C0015_G0010_E0001
 53 54 0 0 0
SMALL
USER_CHARGES
@<TRIPOS>ATOM
       1 C1        11.0182  -10.9054   -1.1265 C.3       1 <0>        -0.1727 
       2 C2        10.6286   -9.8936   -0.0754 C.2       1 <0>         0.5094 
       3 O1        10.5853  -10.2218    1.1092 O.2       1 <0>        -0.5291 
       4 N1        10.3321   -8.6468   -0.4307 N.am      1 <0>        -0.6649 
       5 C3         9.9670   -7.6988    0.5542 C.ar      1 <0>         0.0992 
       6 C4         9.9174   -8.0334    1.9150 C.ar      1 <0>        -0.0654 
       7 C5         9.4376   -7.1072    2.8487 C.ar      1 <0>        -0.1341 
       8 C6         9.1234   -5.8032    2.4481 C.ar      1 <0>         0.1883 
       9 C7         9.2000   -5.4675    1.0912 C.ar      1 <0>        -0.2193 
      10 C8         9.6606   -6.3943    0.1486 C.ar      1 <0>         0.1218 
      11 O2         9.8182   -6.0959   -1.1791 O.3       1 <0>        -0.3161 
      12 C9         8.8181   -5.2906   -1.8087 C.3       1 <0>         0.0284 
      13 N2         8.7665   -4.8394    3.4206 N.am      1 <0>        -0.6855 
      14 C10        8.4665   -3.5980    3.0493 C.2       1 <0>         0.7035 
      15 O3         8.4999   -3.2825    1.8401 O.2       1 <0>        -0.5662 
      16 N3         8.1311   -2.6931    3.9645 N.am      1 <0>        -0.7422 
      17 C11        8.0922   -3.0657    5.3859 C.3       1 <0>         0.1412 
      18 C12        7.6812   -1.8523    6.2185 C.3       1 <0>        -0.0858 
      19 C13        6.2838   -1.4288    5.8338 C.ar      1 <0>        -0.1209 
      20 C14        6.0791   -0.5008    4.8058 C.ar      1 <0>        -0.0699 
      21 C15        4.7825   -0.1354    4.4239 C.ar      1 <0>        -0.1435 
      22 C16        3.6785   -0.6750    5.0873 C.ar      1 <0>         0.1285 
      23 C17        3.8761   -1.5876    6.1305 C.ar      1 <0>        -0.2085 
      24 C18        5.1736   -1.9639    6.4979 C.ar      1 <0>        -0.0706 
      25 O4         2.4111   -0.3122    4.7145 O.3       1 <0>        -0.2897 
      26 C19        1.4456   -0.0921    5.7461 C.3       1 <0>         0.0392 
      27 C20        0.1255    0.2959    5.1242 C.2       1 <0>         0.5189 
      28 O5        -0.8002   -0.5134    5.0921 O.2       1 <0>        -0.5163 
      29 N4        -0.0355    1.5127    4.6117 N.am      1 <0>        -0.8501 
      30 H1        11.0390  -10.4241   -2.1021 H         1 <0>         0.0965 
      31 H2        12.0042  -11.3043   -0.8971 H         1 <0>         0.0914 
      32 H3        10.2919  -11.7152   -1.1362 H         1 <0>         0.0912 
      33 H4        10.3673   -8.3761   -1.4031 H         1 <0>         0.4136 
      34 H5        10.2470   -9.0006    2.2650 H         1 <0>         0.1501 
      35 H6         9.3226   -7.3943    3.8836 H         1 <0>         0.1469 
      36 H7         8.9190   -4.4608    0.8194 H         1 <0>         0.1349 
      37 H8         8.7694   -4.3222   -1.3151 H         1 <0>         0.1017 
      38 H9         9.0726   -5.1516   -2.8574 H         1 <0>         0.0561 
      39 H10        7.8528   -5.7866   -1.7320 H         1 <0>         0.0561 
      40 H11        8.7395   -5.0942    4.3975 H         1 <0>         0.4065 
      41 H12        7.9032   -1.7505    3.6824 H         1 <0>         0.3980 
      42 H13        9.0779   -3.4040    5.6985 H         1 <0>         0.0719 
      43 H14        7.3704   -3.8669    5.5305 H         1 <0>         0.0706 
      44 H15        8.3733   -1.0338    6.0316 H         1 <0>         0.0792 
      45 H16        7.7039   -2.1133    7.2744 H         1 <0>         0.0805 
      46 H17        6.9176   -0.0556    4.2913 H         1 <0>         0.1321 
      47 H18        4.6263    0.5695    3.6208 H         1 <0>         0.1348 
      48 H19        3.0227   -2.0016    6.6470 H         1 <0>         0.1285 
      49 H20        5.3003   -2.6728    7.3027 H         1 <0>         0.1266 
      50 H21        1.7890    0.7080    6.3986 H         1 <0>         0.0957 
      51 H22        1.3202   -1.0045    6.3253 H         1 <0>         0.0953 
      52 H23       -0.9185    1.7722    4.1957 H         1 <0>         0.4036 
      53 H24        0.7253    2.1763    4.6385 H         1 <0>         0.4104 
@<TRIPOS>BOND
       1        1        2 1        
       2        1       30 1        
       3        1       31 1        
       4        1       32 1        
       5        2        3 2        
       6        2        4 am       
       7        4        5 1        
       8        4       33 1        
       9        5       10 ar       
      10        5        6 ar       
      11        6        7 ar       
      12        6       34 1        
      13        7        8 ar       
      14        7       35 1        
      15        8        9 ar       
      16        8       13 1        
      17        9       10 ar       
      18        9       36 1        
      19       10       11 1        
      20       11       12 1        
      21       12       37 1        
      22       12       38 1        
      23       12       39 1        
      24       13       14 am       
      25       13       40 1        
      26       14       15 2        
      27       14       16 am       
      28       16       17 1        
      29       16       41 1        
      30       17       18 1        
      31       17       42 1        
      32       17       43 1        
      33       18       19 1        
      34       18       44 1        
      35       18       45 1        
      36       19       24 ar       
      37       19       20 ar       
      38       20       21 ar       
      39       20       46 1        
      40       21       22 ar       
      41       21       47 1        
      42       22       23 ar       
      43       22       25 1        
      44       23       24 ar       
      45       23       48 1        
      46       24       49 1        
      47       25       26 1        
      48       26       27 1        
      49       26       50 1        
      50       26       51 1        
      51       27       28 2        
      52       27       29 am       
      53       29       52 1        
      54       29       53 1        

