#        1GCZ_R01_S0001_C0000_L00015_S0001_C0017_G0010_E0001.mol2
#        Tue Jun  6 14:16:48 2017
#        Descriptor:     24     1    32    14     8    13
#        Energy - RMSD - RMSD MassCentre:     -66.2292    999.9999    999.9999
#        Receptor:       1  Surface Point:     1  Conformer:     0
#        Ligand:        15  Surface Point:     1  Conformer:    17
#        BUDE Formal Charge: 0
#        ATOM Count: 53
#        Heavy ATOM Count: 29
@<TRIPOS>MOLECULE
ZINC61646583_1GCZ_R01_S0001_C0000_L00015_S0001_C0017_G0010_E0001
 53 54 0 0 0
SMALL
USER_CHARGES
@<TRIPOS>ATOM
       1 C1        -0.8428    4.6454    9.1649 C.3       1 <0>        -0.1727 
       2 C2         0.6200    4.2953    9.0308 C.2       1 <0>         0.5094 
       3 O1         1.4245    4.6753    9.8799 O.2       1 <0>        -0.5291 
       4 N1         1.0386    3.5755    7.9938 N.am      1 <0>        -0.6649 
       5 C3         2.4093    3.2474    7.8681 C.ar      1 <0>         0.0992 
       6 C4         3.3536    3.6537    8.8219 C.ar      1 <0>        -0.0654 
       7 C5         4.7162    3.4157    8.6063 C.ar      1 <0>        -0.1341 
       8 C6         5.1325    2.6628    7.5019 C.ar      1 <0>         0.1883 
       9 C7         4.1817    2.2375    6.5666 C.ar      1 <0>        -0.2193 
      10 C8         2.8189    2.4884    6.7654 C.ar      1 <0>         0.1218 
      11 O2         1.8433    2.0364    5.9165 O.3       1 <0>        -0.3161 
      12 C9         1.9730    0.7134    5.3894 C.3       1 <0>         0.0284 
      13 N2         6.4977    2.3167    7.3658 N.am      1 <0>        -0.6855 
      14 C10        6.9023    1.6016    6.3199 C.2       1 <0>         0.7035 
      15 O3         6.0759    1.2351    5.4565 O.2       1 <0>        -0.5662 
      16 N3         8.1859    1.2770    6.1932 N.am      1 <0>        -0.7422 
      17 C11        8.6330    0.4868    5.0372 C.3       1 <0>         0.1412 
      18 C12        7.9651   -0.8872    5.0716 C.3       1 <0>        -0.0858 
      19 C13        8.4244   -1.6989    3.8842 C.ar      1 <0>        -0.1209 
      20 C14        7.7246   -1.6469    2.6728 C.ar      1 <0>        -0.0699 
      21 C15        8.1708   -2.3709    1.5606 C.ar      1 <0>        -0.1435 
      22 C16        9.3073   -3.1766    1.6592 C.ar      1 <0>         0.1285 
      23 C17       10.0001   -3.2502    2.8735 C.ar      1 <0>        -0.2085 
      24 C18        9.5608   -2.5111    3.9785 C.ar      1 <0>        -0.0706 
      25 O4         9.7390   -3.8874    0.5706 O.3       1 <0>        -0.2897 
      26 C19       10.2114   -5.2202    0.7841 C.3       1 <0>         0.0392 
      27 C20       10.6356   -5.8202   -0.5349 C.2       1 <0>         0.5189 
      28 O5        11.8308   -5.9503   -0.7949 O.2       1 <0>        -0.5163 
      29 N4         9.7168   -6.2077   -1.4151 N.am      1 <0>        -0.8501 
      30 H1        -1.3999    4.1921    8.3477 H         1 <0>         0.0965 
      31 H2        -1.2195    4.2695   10.1139 H         1 <0>         0.0914 
      32 H3        -0.9610    5.7263    9.1296 H         1 <0>         0.0912 
      33 H4         0.3789    3.2629    7.2959 H         1 <0>         0.4136 
      34 H5         3.0506    4.1503    9.7319 H         1 <0>         0.1501 
      35 H6         5.4479    3.8015    9.3008 H         1 <0>         0.1469 
      36 H7         4.5474    1.6867    5.7127 H         1 <0>         0.1349 
      37 H8         1.9762   -0.0035    6.2078 H         1 <0>         0.1017 
      38 H9         1.1361    0.5042    4.7264 H         1 <0>         0.0561 
      39 H10        2.9051    0.6349    4.8338 H         1 <0>         0.0561 
      40 H11        7.1654    2.6128    8.0633 H         1 <0>         0.4065 
      41 H12        8.8527    1.5737    6.8913 H         1 <0>         0.3980 
      42 H13        9.7136    0.3664    5.0770 H         1 <0>         0.0719 
      43 H14        8.3584    1.0013    4.1188 H         1 <0>         0.0706 
      44 H15        6.8847   -0.7654    5.0325 H         1 <0>         0.0792 
      45 H16        8.2399   -1.4003    5.9907 H         1 <0>         0.0805 
      46 H17        6.8322   -1.0461    2.5783 H         1 <0>         0.1321 
      47 H18        7.6380   -2.3179    0.6228 H         1 <0>         0.1348 
      48 H19       10.8764   -3.8767    2.9516 H         1 <0>         0.1285 
      49 H20       10.1146   -2.5809    4.9031 H         1 <0>         0.1266 
      50 H21        9.4148   -5.8215    1.2172 H         1 <0>         0.0957 
      51 H22       11.0609   -5.1987    1.4635 H         1 <0>         0.0953 
      52 H23       10.0005   -6.6091   -2.2974 H         1 <0>         0.4036 
      53 H24        8.7356   -6.1002   -1.2007 H         1 <0>         0.4104 
@<TRIPOS>BOND
       1        1        2 1        
       2        1       30 1        
       3        1       31 1        
       4        1       32 1        
       5        2        3 2        
       6        2        4 am       
       7        4        5 1        
       8        4       33 1        
       9        5       10 ar       
      10        5        6 ar       
      11        6        7 ar       
      12        6       34 1        
      13        7        8 ar       
      14        7       35 1        
      15        8        9 ar       
      16        8       13 1        
      17        9       10 ar       
      18        9       36 1        
      19       10       11 1        
      20       11       12 1        
      21       12       37 1        
      22       12       38 1        
      23       12       39 1        
      24       13       14 am       
      25       13       40 1        
      26       14       15 2        
      27       14       16 am       
      28       16       17 1        
      29       16       41 1        
      30       17       18 1        
      31       17       42 1        
      32       17       43 1        
      33       18       19 1        
      34       18       44 1        
      35       18       45 1        
      36       19       24 ar       
      37       19       20 ar       
      38       20       21 ar       
      39       20       46 1        
      40       21       22 ar       
      41       21       47 1        
      42       22       23 ar       
      43       22       25 1        
      44       23       24 ar       
      45       23       48 1        
      46       24       49 1        
      47       25       26 1        
      48       26       27 1        
      49       26       50 1        
      50       26       51 1        
      51       27       28 2        
      52       27       29 am       
      53       29       52 1        
      54       29       53 1        

