#        1GCZ_R01_S0001_C0000_L00003_S0001_C0030_G0010_E0001.mol2
#        Tue Jun  6 09:55:01 2017
#        Descriptor:     16     8    35     8     9    14
#        Energy - RMSD - RMSD MassCentre:     -65.4977    999.9999    999.9999
#        Receptor:       1  Surface Point:     1  Conformer:     0
#        Ligand:         3  Surface Point:     1  Conformer:    30
#        BUDE Formal Charge: 0
#        ATOM Count: 58
#        Heavy ATOM Count: 30
@<TRIPOS>MOLECULE
ZINC61580633_1GCZ_R01_S0001_C0000_L00003_S0001_C0030_G0010_E0001
 58 59 0 0 0
SMALL
USER_CHARGES
@<TRIPOS>ATOM
       1 C1        -0.1082   -0.1760   -0.2089 C.3       1 <0>        -0.1532 
       2 C2        -0.4730   -0.2858    1.2687 C.3       1 <0>        -0.1224 
       3 C3        -0.4261    1.1010    1.9085 C.3       1 <0>        -0.1198 
       4 C4        -0.7914    0.9910    3.3882 C.3       1 <0>         0.0610 
       5 O1        -2.1350    0.5173    3.5126 O.3       1 <0>        -0.3878 
       6 C5        -2.5339    0.3939    4.8802 C.3       1 <0>         0.0487 
       7 C6        -1.6225   -0.6082    5.5873 C.3       1 <0>         0.1244 
       8 N1        -2.0325   -0.7350    6.9932 N.am      1 <0>        -0.7216 
       9 C7        -1.3758   -1.5585    7.8053 C.2       1 <0>         0.5161 
      10 O2        -1.7178   -1.6656    8.9818 O.2       1 <0>        -0.5151 
      11 C8        -0.2094   -2.3624    7.2824 C.3       1 <0>         0.0490 
      12 O3         0.8879   -1.4870    7.0099 O.3       1 <0>        -0.3194 
      13 C9         2.0276   -2.0301    6.5317 C.2       1 <0>         0.5417 
      14 O4         2.0991   -3.2335    6.3445 O.2       1 <0>        -0.5337 
      15 C10        3.1909   -1.1650    6.2344 C.2       1 <0>        -0.2559 
      16 C11        4.4892   -1.6566    5.7213 C.2       1 <0>        -0.0791 
      17 C12        5.3744   -0.6720    5.5506 C.2       1 <0>        -0.2585 
      18 S1         4.7221    0.9152    5.9839 S.3       1 <0>         0.3028 
      19 C13        3.1798    0.1625    6.4168 C.2       1 <0>         0.0893 
      20 N2         2.0802    0.8238    6.8968 N.am      1 <0>        -0.6099 
      21 C14        2.1159    2.1430    7.0615 C.2       1 <0>         0.5551 
      22 O5         3.1368    2.7698    6.7827 O.2       1 <0>        -0.4939 
      23 C15        0.9271    2.8559    7.5801 C.ar      1 <0>        -0.1466 
      24 C16        1.0095    4.2442    7.7409 C.ar      1 <0>        -0.0772 
      25 C17       -0.0553    4.9639    8.2959 C.ar      1 <0>        -0.1241 
      26 C18       -1.2196    4.3065    8.7101 C.ar      1 <0>        -0.0446 
      27 C19       -1.3257    2.9262    8.5017 C.ar      1 <0>        -0.1261 
      28 C20       -0.2700    2.2144    7.9196 C.ar      1 <0>        -0.0460 
      29 C21       -2.3318    5.0919    9.3632 C.3       1 <0>        -0.0928 
      30 C22       -2.1173    5.1157   10.8738 C.3       1 <0>        -0.1485 
      31 H1         0.8999    0.2221   -0.3043 H         1 <0>         0.0567 
      32 H2        -0.8102    0.4897   -0.7065 H         1 <0>         0.0554 
      33 H3        -0.1546   -1.1614   -0.6675 H         1 <0>         0.0557 
      34 H4        -1.4763   -0.6956    1.3657 H         1 <0>         0.0632 
      35 H5         0.2367   -0.9402    1.7706 H         1 <0>         0.0635 
      36 H6         0.5768    1.5114    1.8129 H         1 <0>         0.0711 
      37 H7        -1.1361    1.7560    1.4080 H         1 <0>         0.0704 
      38 H8        -0.1150    0.2939    3.8785 H         1 <0>         0.0498 
      39 H9        -0.7076    1.9693    3.8567 H         1 <0>         0.0505 
      40 H10       -3.5629    0.0440    4.9285 H         1 <0>         0.0584 
      41 H11       -2.4562    1.3622    5.3702 H         1 <0>         0.0702 
      42 H12       -0.5932   -0.2588    5.5405 H         1 <0>         0.0872 
      43 H13       -1.7000   -1.5772    5.0987 H         1 <0>         0.0805 
      44 H14       -2.8127   -0.1973    7.3429 H         1 <0>         0.4058 
      45 H15        0.0894   -3.0963    8.0280 H         1 <0>         0.1008 
      46 H16       -0.5014   -2.8729    6.3670 H         1 <0>         0.0999 
      47 H17        4.6735   -2.6984    5.5045 H         1 <0>         0.1557 
      48 H18        6.3726   -0.8411    5.1748 H         1 <0>         0.1929 
      49 H19        1.2419    0.3091    7.1257 H         1 <0>         0.4317 
      50 H20        1.9047    4.7673    7.4386 H         1 <0>         0.1287 
      51 H21        0.0172    6.0354    8.4093 H         1 <0>         0.1326 
      52 H22       -2.2342    2.4196    8.7924 H         1 <0>         0.1342 
      53 H23       -0.4319    1.1637    7.7295 H         1 <0>         0.1410 
      54 H24       -3.2869    4.6216    9.1392 H         1 <0>         0.0777 
      55 H25       -2.3294    6.1101    8.9798 H         1 <0>         0.0771 
      56 H26       -1.1677    5.5974   11.0972 H         1 <0>         0.0623 
      57 H27       -2.1057    4.0963   11.2540 H         1 <0>         0.0572 
      58 H28       -2.9258    5.6702   11.3455 H         1 <0>         0.0578 
@<TRIPOS>BOND
       1        1        2 1        
       2        1       31 1        
       3        1       32 1        
       4        1       33 1        
       5        2        3 1        
       6        2       34 1        
       7        2       35 1        
       8        3        4 1        
       9        3       36 1        
      10        3       37 1        
      11        4        5 1        
      12        4       38 1        
      13        4       39 1        
      14        5        6 1        
      15        6        7 1        
      16        6       40 1        
      17        6       41 1        
      18        7        8 1        
      19        7       42 1        
      20        7       43 1        
      21        8        9 am       
      22        8       44 1        
      23        9       10 2        
      24        9       11 1        
      25       11       12 1        
      26       11       45 1        
      27       11       46 1        
      28       12       13 1        
      29       13       14 2        
      30       13       15 1        
      31       15       19 2        
      32       15       16 1        
      33       16       17 2        
      34       16       47 1        
      35       17       18 1        
      36       17       48 1        
      37       18       19 1        
      38       19       20 1        
      39       20       21 am       
      40       20       49 1        
      41       21       22 2        
      42       21       23 1        
      43       23       28 ar       
      44       23       24 ar       
      45       24       25 ar       
      46       24       50 1        
      47       25       26 ar       
      48       25       51 1        
      49       26       27 ar       
      50       26       29 1        
      51       27       28 ar       
      52       27       52 1        
      53       28       53 1        
      54       29       30 1        
      55       29       54 1        
      56       29       55 1        
      57       30       56 1        
      58       30       57 1        
      59       30       58 1        

