#        1GCZ_R01_S0001_C0000_L00015_S0001_C0019_G0010_E0001.mol2
#        Tue Jun  6 10:00:19 2017
#        Descriptor:     20    22    36    10     9    13
#        Energy - RMSD - RMSD MassCentre:     -62.7291    999.9999    999.9999
#        Receptor:       1  Surface Point:     1  Conformer:     0
#        Ligand:        15  Surface Point:     1  Conformer:    19
#        BUDE Formal Charge: 0
#        ATOM Count: 53
#        Heavy ATOM Count: 29
@<TRIPOS>MOLECULE
ZINC61646583_1GCZ_R01_S0001_C0000_L00015_S0001_C0019_G0010_E0001
 53 54 0 0 0
SMALL
USER_CHARGES
@<TRIPOS>ATOM
       1 C1         9.0026   -0.2712    8.6058 C.3       1 <0>        -0.1727 
       2 C2         7.5420   -0.0359    8.3035 C.2       1 <0>         0.5094 
       3 O1         6.7280   -0.9461    8.4520 O.2       1 <0>        -0.5291 
       4 N1         7.1355    1.1561    7.8762 N.am      1 <0>        -0.6649 
       5 C3         5.7669    1.3765    7.5929 C.ar      1 <0>         0.0992 
       6 C4         4.8086    0.3666    7.7608 C.ar      1 <0>        -0.0654 
       7 C5         3.4850    0.5807    7.3582 C.ar      1 <0>        -0.1341 
       8 C6         3.0837    1.8424    6.9032 C.ar      1 <0>         0.1883 
       9 C7         4.0404    2.8547    6.7625 C.ar      1 <0>        -0.2193 
      10 C8         5.3701    2.6422    7.1448 C.ar      1 <0>         0.1218 
      11 O2         6.3295    3.6187    7.0905 O.3       1 <0>        -0.3161 
      12 C9         5.9638    4.9412    7.4931 C.3       1 <0>         0.0284 
      13 N2         1.7175    2.0837    6.6250 N.am      1 <0>        -0.6855 
      14 C10        0.8220    1.1153    6.7957 C.2       1 <0>         0.7035 
      15 O3         1.1875   -0.0088    7.2023 O.2       1 <0>        -0.5662 
      16 N3        -0.4619    1.3436    6.5338 N.am      1 <0>        -0.7422 
      17 C11       -1.4516    0.2734    6.7227 C.3       1 <0>         0.1412 
      18 C12       -1.1393   -0.8814    5.7720 C.3       1 <0>        -0.0858 
      19 C13       -1.2684   -0.4061    4.3446 C.ar      1 <0>        -0.1209 
      20 C14       -2.4942   -0.4922    3.6738 C.ar      1 <0>        -0.0699 
      21 C15       -2.6237   -0.0181    2.3628 C.ar      1 <0>        -0.1435 
      22 C16       -1.5188    0.5216    1.7008 C.ar      1 <0>         0.1285 
      23 C17       -0.2846    0.5917    2.3578 C.ar      1 <0>        -0.2085 
      24 C18       -0.1632    0.1325    3.6748 C.ar      1 <0>        -0.0706 
      25 O4        -1.6474    0.9806    0.4164 O.3       1 <0>        -0.2897 
      26 C19       -0.5876    0.7057   -0.5034 C.3       1 <0>         0.0392 
      27 C20       -0.9270    1.2947   -1.8517 C.2       1 <0>         0.5189 
      28 O5        -0.3554    2.3126   -2.2392 O.2       1 <0>        -0.5163 
      29 N4        -1.8438    0.7125   -2.6194 N.am      1 <0>        -0.8501 
      30 H1         9.5570    0.6526    8.4546 H         1 <0>         0.0965 
      31 H2         9.1109   -0.5950    9.6390 H         1 <0>         0.0914 
      32 H3         9.3905   -1.0406    7.9417 H         1 <0>         0.0912 
      33 H4         7.8030    1.9040    7.7539 H         1 <0>         0.4136 
      34 H5         5.0702   -0.5842    8.2011 H         1 <0>         0.1501 
      35 H6         2.7676   -0.2248    7.4118 H         1 <0>         0.1469 
      36 H7         3.6961    3.8035    6.3784 H         1 <0>         0.1349 
      37 H8         5.6462    4.9280    8.5337 H         1 <0>         0.1017 
      38 H9         6.8202    5.6030    7.3830 H         1 <0>         0.0561 
      39 H10        5.1472    5.2970    6.8685 H         1 <0>         0.0561 
      40 H11        1.4222    2.9919    6.2964 H         1 <0>         0.4065 
      41 H12       -0.7561    2.2523    6.2055 H         1 <0>         0.3980 
      42 H13       -2.4468    0.6591    6.5111 H         1 <0>         0.0719 
      43 H14       -1.4102   -0.0809    7.7505 H         1 <0>         0.0706 
      44 H15       -1.8395   -1.6952    5.9487 H         1 <0>         0.0792 
      45 H16       -0.1241   -1.2308    5.9482 H         1 <0>         0.0805 
      46 H17       -3.3576   -0.9233    4.1586 H         1 <0>         0.1321 
      47 H18       -3.5738   -0.0720    1.8523 H         1 <0>         0.1348 
      48 H19        0.5712    1.0047    1.8446 H         1 <0>         0.1285 
      49 H20        0.7982    0.2012    4.1620 H         1 <0>         0.1266 
      50 H21       -0.4609   -0.3706   -0.5986 H         1 <0>         0.0957 
      51 H22        0.3354    1.1490   -0.1353 H         1 <0>         0.0953 
      52 H23       -2.0709    1.1065   -3.5213 H         1 <0>         0.4036 
      53 H24       -2.3126   -0.1232   -2.3001 H         1 <0>         0.4104 
@<TRIPOS>BOND
       1        1        2 1        
       2        1       30 1        
       3        1       31 1        
       4        1       32 1        
       5        2        3 2        
       6        2        4 am       
       7        4        5 1        
       8        4       33 1        
       9        5       10 ar       
      10        5        6 ar       
      11        6        7 ar       
      12        6       34 1        
      13        7        8 ar       
      14        7       35 1        
      15        8        9 ar       
      16        8       13 1        
      17        9       10 ar       
      18        9       36 1        
      19       10       11 1        
      20       11       12 1        
      21       12       37 1        
      22       12       38 1        
      23       12       39 1        
      24       13       14 am       
      25       13       40 1        
      26       14       15 2        
      27       14       16 am       
      28       16       17 1        
      29       16       41 1        
      30       17       18 1        
      31       17       42 1        
      32       17       43 1        
      33       18       19 1        
      34       18       44 1        
      35       18       45 1        
      36       19       24 ar       
      37       19       20 ar       
      38       20       21 ar       
      39       20       46 1        
      40       21       22 ar       
      41       21       47 1        
      42       22       23 ar       
      43       22       25 1        
      44       23       24 ar       
      45       23       48 1        
      46       24       49 1        
      47       25       26 1        
      48       26       27 1        
      49       26       50 1        
      50       26       51 1        
      51       27       28 2        
      52       27       29 am       
      53       29       52 1        
      54       29       53 1        

