#        1GCZ_R01_S0001_C0000_L00015_S0001_C0019_G0010_E0001.mol2
#        Tue Jun  6 14:16:52 2017
#        Descriptor:     22    23    30    10     6    12
#        Energy - RMSD - RMSD MassCentre:     -56.4239    999.9999    999.9999
#        Receptor:       1  Surface Point:     1  Conformer:     0
#        Ligand:        15  Surface Point:     1  Conformer:    19
#        BUDE Formal Charge: 0
#        ATOM Count: 53
#        Heavy ATOM Count: 29
@<TRIPOS>MOLECULE
ZINC61646583_1GCZ_R01_S0001_C0000_L00015_S0001_C0019_G0010_E0001
 53 54 0 0 0
SMALL
USER_CHARGES
@<TRIPOS>ATOM
       1 C1         3.3787   -7.9667    9.1139 C.3       1 <0>        -0.1727 
       2 C2         3.1339   -6.6167    8.4834 C.2       1 <0>         0.5094 
       3 O1         2.0637   -6.0378    8.6637 O.2       1 <0>        -0.5291 
       4 N1         4.0760   -6.0532    7.7325 N.am      1 <0>        -0.6649 
       5 C3         3.8465   -4.7882    7.1417 C.ar      1 <0>         0.0992 
       6 C4         2.6436   -4.0936    7.3338 C.ar      1 <0>        -0.0654 
       7 C5         2.4023   -2.9021    6.6394 C.ar      1 <0>        -0.1341 
       8 C6         3.4073   -2.3337    5.8477 C.ar      1 <0>         0.1883 
       9 C7         4.6163   -3.0195    5.6808 C.ar      1 <0>        -0.2193 
      10 C8         4.8577   -4.2214    6.3567 C.ar      1 <0>         0.1218 
      11 O2         6.0473   -4.8967    6.2806 O.3       1 <0>        -0.3161 
      12 C9         7.2552   -4.1318    6.3018 C.3       1 <0>         0.0284 
      13 N2         3.1991   -1.0646    5.2577 N.am      1 <0>        -0.6855 
      14 C10        2.0540   -0.4178    5.4558 C.2       1 <0>         0.7035 
      15 O3         1.1610   -0.9315    6.1639 O.2       1 <0>        -0.5662 
      16 N3         1.8597    0.7751    4.9006 N.am      1 <0>        -0.7422 
      17 C11        0.5941    1.4898    5.1197 C.3       1 <0>         0.1412 
      18 C12       -0.5573    0.6782    4.5276 C.3       1 <0>        -0.0858 
      19 C13       -0.3704    0.5568    3.0342 C.ar      1 <0>        -0.1209 
      20 C14       -0.9096    1.5164    2.1690 C.ar      1 <0>        -0.0699 
      21 C15       -0.7057    1.4241    0.7869 C.ar      1 <0>        -0.1435 
      22 C16        0.0170    0.3540    0.2553 C.ar      1 <0>         0.1285 
      23 C17        0.5413   -0.6209    1.1125 C.ar      1 <0>        -0.2085 
      24 C18        0.3501   -0.5159    2.4955 C.ar      1 <0>        -0.0706 
      25 O4         0.2111    0.2639   -1.0979 O.3       1 <0>        -0.2897 
      26 C19        0.1106   -1.0267   -1.7055 C.3       1 <0>         0.0392 
      27 C20        0.3569   -0.9036   -3.1901 C.2       1 <0>         0.5189 
      28 O5         1.4216   -1.2891   -3.6705 O.2       1 <0>        -0.5163 
      29 N4        -0.5776   -0.3784   -3.9774 N.am      1 <0>        -0.8501 
      30 H1         4.3869   -8.2997    8.8765 H         1 <0>         0.0965 
      31 H2         3.2670   -7.8877   10.1933 H         1 <0>         0.0914 
      32 H3         2.6584   -8.6836    8.7257 H         1 <0>         0.0912 
      33 H4         4.9550   -6.5277    7.5838 H         1 <0>         0.4136 
      34 H5         1.8899   -4.4593    8.0154 H         1 <0>         0.1501 
      35 H6         1.4437   -2.4122    6.7252 H         1 <0>         0.1469 
      36 H7         5.3533   -2.5627    5.0370 H         1 <0>         0.1349 
      37 H8         7.3158   -3.5765    7.2356 H         1 <0>         0.1017 
      38 H9         8.1091   -4.8011    6.2212 H         1 <0>         0.0561 
      39 H10        7.2583   -3.4367    5.4648 H         1 <0>         0.0561 
      40 H11        3.9206   -0.6496    4.6856 H         1 <0>         0.4065 
      41 H12        2.5819    1.1891    4.3288 H         1 <0>         0.3980 
      42 H13        0.6393    2.4630    4.6353 H         1 <0>         0.0719 
      43 H14        0.4334    1.6227    6.1875 H         1 <0>         0.0706 
      44 H15       -1.4993    1.1809    4.7362 H         1 <0>         0.0792 
      45 H16       -0.5681   -0.3137    4.9743 H         1 <0>         0.0805 
      46 H17       -1.4884    2.3422    2.5553 H         1 <0>         0.1321 
      47 H18       -1.1100    2.1734    0.1225 H         1 <0>         0.1348 
      48 H19        1.0963   -1.4512    0.7015 H         1 <0>         0.1285 
      49 H20        0.7680   -1.2780    3.1366 H         1 <0>         0.1266 
      50 H21       -0.8849   -1.4307   -1.5347 H         1 <0>         0.0957 
      51 H22        0.8525   -1.6915   -1.2681 H         1 <0>         0.0953 
      52 H23       -0.4128   -0.2960   -4.9706 H         1 <0>         0.4036 
      53 H24       -1.4514   -0.0620   -3.5819 H         1 <0>         0.4104 
@<TRIPOS>BOND
       1        1        2 1        
       2        1       30 1        
       3        1       31 1        
       4        1       32 1        
       5        2        3 2        
       6        2        4 am       
       7        4        5 1        
       8        4       33 1        
       9        5       10 ar       
      10        5        6 ar       
      11        6        7 ar       
      12        6       34 1        
      13        7        8 ar       
      14        7       35 1        
      15        8        9 ar       
      16        8       13 1        
      17        9       10 ar       
      18        9       36 1        
      19       10       11 1        
      20       11       12 1        
      21       12       37 1        
      22       12       38 1        
      23       12       39 1        
      24       13       14 am       
      25       13       40 1        
      26       14       15 2        
      27       14       16 am       
      28       16       17 1        
      29       16       41 1        
      30       17       18 1        
      31       17       42 1        
      32       17       43 1        
      33       18       19 1        
      34       18       44 1        
      35       18       45 1        
      36       19       24 ar       
      37       19       20 ar       
      38       20       21 ar       
      39       20       46 1        
      40       21       22 ar       
      41       21       47 1        
      42       22       23 ar       
      43       22       25 1        
      44       23       24 ar       
      45       23       48 1        
      46       24       49 1        
      47       25       26 1        
      48       26       27 1        
      49       26       50 1        
      50       26       51 1        
      51       27       28 2        
      52       27       29 am       
      53       29       52 1        
      54       29       53 1        

