#        1GCZ_R01_S0001_C0000_L00015_S0001_C0022_G0010_E0001.mol2
#        Tue Jun  6 10:00:21 2017
#        Descriptor:     26     2    34    15    10    13
#        Energy - RMSD - RMSD MassCentre:     -65.8473    999.9999    999.9999
#        Receptor:       1  Surface Point:     1  Conformer:     0
#        Ligand:        15  Surface Point:     1  Conformer:    22
#        BUDE Formal Charge: 0
#        ATOM Count: 53
#        Heavy ATOM Count: 29
@<TRIPOS>MOLECULE
ZINC61646583_1GCZ_R01_S0001_C0000_L00015_S0001_C0022_G0010_E0001
 53 54 0 0 0
SMALL
USER_CHARGES
@<TRIPOS>ATOM
       1 C1        -1.9623    0.6761    4.0902 C.3       1 <0>        -0.1727 
       2 C2        -0.5048    0.9227    4.3985 C.2       1 <0>         0.5094 
       3 O1         0.3502    0.7142    3.5392 O.2       1 <0>        -0.5291 
       4 N1        -0.1454    1.3653    5.6000 N.am      1 <0>        -0.6649 
       5 C3         1.2203    1.5962    5.8889 C.ar      1 <0>         0.0992 
       6 C4         2.2218    1.3805    4.9314 C.ar      1 <0>        -0.0654 
       7 C5         3.5705    1.5035    5.2861 C.ar      1 <0>        -0.1341 
       8 C6         3.9234    1.9628    6.5606 C.ar      1 <0>         0.1883 
       9 C7         2.9173    2.2016    7.5042 C.ar      1 <0>        -0.2193 
      10 C8         1.5669    2.0621    7.1628 C.ar      1 <0>         0.1218 
      11 O2         0.5432    2.3477    8.0274 O.3       1 <0>        -0.3161 
      12 C9         0.6684    3.5067    8.8556 C.3       1 <0>         0.0284 
      13 N2         5.2834    2.2091    6.8636 N.am      1 <0>        -0.6855 
      14 C10        6.2190    2.0044    5.9407 C.2       1 <0>         0.7035 
      15 O3         5.8966    1.5942    4.8048 O.2       1 <0>        -0.5662 
      16 N3         7.4970    2.2364    6.2270 N.am      1 <0>        -0.7422 
      17 C11        8.5309    2.0102    5.2069 C.3       1 <0>         0.1412 
      18 C12        9.9022    2.3501    5.7890 C.3       1 <0>        -0.0858 
      19 C13       10.9644    2.1177    4.7412 C.ar      1 <0>        -0.1209 
      20 C14       11.5837    0.8679    4.6204 C.ar      1 <0>        -0.0699 
      21 C15       12.5422    0.6412    3.6255 C.ar      1 <0>        -0.1435 
      22 C16       12.9103    1.6728    2.7591 C.ar      1 <0>         0.1285 
      23 C17       12.3107    2.9313    2.8875 C.ar      1 <0>        -0.2085 
      24 C18       11.3399    3.1494    3.8724 C.ar      1 <0>        -0.0706 
      25 O4        13.8519    1.4492    1.7894 O.3       1 <0>        -0.2897 
      26 C19       14.8139    2.4771    1.5390 C.3       1 <0>         0.0392 
      27 C20       15.6152    2.7319    2.7932 C.2       1 <0>         0.5189 
      28 O5        15.4120    3.7476    3.4566 O.2       1 <0>        -0.5163 
      29 N4        16.5400    1.8578    3.1801 N.am      1 <0>        -0.8501 
      30 H1        -2.5664    0.9524    4.9518 H         1 <0>         0.0965 
      31 H2        -2.2574    1.2765    3.2321 H         1 <0>         0.0914 
      32 H3        -2.1115   -0.3776    3.8647 H         1 <0>         0.0912 
      33 H4        -0.8466    1.5366    6.3063 H         1 <0>         0.4136 
      34 H5         1.9742    1.1206    3.9128 H         1 <0>         0.1501 
      35 H6         4.3412    1.2571    4.5708 H         1 <0>         0.1469 
      36 H7         3.2330    2.5243    8.4853 H         1 <0>         0.1349 
      37 H8         0.7515    4.3923    8.2289 H         1 <0>         0.1017 
      38 H9        -0.2095    3.5933    9.4923 H         1 <0>         0.0561 
      39 H10        1.5584    3.4149    9.4746 H         1 <0>         0.0561 
      40 H11        5.5439    2.5406    7.7814 H         1 <0>         0.4065 
      41 H12        7.7563    2.5680    7.1450 H         1 <0>         0.3980 
      42 H13        8.3344    2.6448    4.3454 H         1 <0>         0.0719 
      43 H14        8.5148    0.9664    4.9005 H         1 <0>         0.0706 
      44 H15       10.0971    1.7154    6.6509 H         1 <0>         0.0792 
      45 H16        9.9167    3.3938    6.0957 H         1 <0>         0.0805 
      46 H17       11.3294    0.0607    5.2912 H         1 <0>         0.1321 
      47 H18       13.0082   -0.3279    3.5245 H         1 <0>         0.1348 
      48 H19       12.5985    3.7307    2.2208 H         1 <0>         0.1285 
      49 H20       10.8884    4.1274    3.9489 H         1 <0>         0.1266 
      50 H21       14.3002    3.3897    1.2444 H         1 <0>         0.0957 
      51 H22       15.4811    2.1614    0.7396 H         1 <0>         0.0953 
      52 H23       17.0759    2.0283    4.0190 H         1 <0>         0.4036 
      53 H24       16.7061    1.0242    2.6346 H         1 <0>         0.4104 
@<TRIPOS>BOND
       1        1        2 1        
       2        1       30 1        
       3        1       31 1        
       4        1       32 1        
       5        2        3 2        
       6        2        4 am       
       7        4        5 1        
       8        4       33 1        
       9        5       10 ar       
      10        5        6 ar       
      11        6        7 ar       
      12        6       34 1        
      13        7        8 ar       
      14        7       35 1        
      15        8        9 ar       
      16        8       13 1        
      17        9       10 ar       
      18        9       36 1        
      19       10       11 1        
      20       11       12 1        
      21       12       37 1        
      22       12       38 1        
      23       12       39 1        
      24       13       14 am       
      25       13       40 1        
      26       14       15 2        
      27       14       16 am       
      28       16       17 1        
      29       16       41 1        
      30       17       18 1        
      31       17       42 1        
      32       17       43 1        
      33       18       19 1        
      34       18       44 1        
      35       18       45 1        
      36       19       24 ar       
      37       19       20 ar       
      38       20       21 ar       
      39       20       46 1        
      40       21       22 ar       
      41       21       47 1        
      42       22       23 ar       
      43       22       25 1        
      44       23       24 ar       
      45       23       48 1        
      46       24       49 1        
      47       25       26 1        
      48       26       27 1        
      49       26       50 1        
      50       26       51 1        
      51       27       28 2        
      52       27       29 am       
      53       29       52 1        
      54       29       53 1        

