#        1GCZ_R01_S0001_C0000_L00015_S0001_C0023_G0010_E0001.mol2
#        Tue Jun  6 14:17:00 2017
#        Descriptor:     32    19    21    14     8    14
#        Energy - RMSD - RMSD MassCentre:     -59.9801    999.9999    999.9999
#        Receptor:       1  Surface Point:     1  Conformer:     0
#        Ligand:        15  Surface Point:     1  Conformer:    23
#        BUDE Formal Charge: 0
#        ATOM Count: 53
#        Heavy ATOM Count: 29
@<TRIPOS>MOLECULE
ZINC61646583_1GCZ_R01_S0001_C0000_L00015_S0001_C0023_G0010_E0001
 53 54 0 0 0
SMALL
USER_CHARGES
@<TRIPOS>ATOM
       1 C1         0.1770    0.5008   11.3256 C.3       1 <0>        -0.1727 
       2 C2         1.4606    0.6705   10.5486 C.2       1 <0>         0.5094 
       3 O1         2.4850    0.0994   10.9194 O.2       1 <0>        -0.5291 
       4 N1         1.4836    1.4379    9.4627 N.am      1 <0>        -0.6649 
       5 C3         2.6864    1.5970    8.7347 C.ar      1 <0>         0.0992 
       6 C4         3.8709    0.9532    9.1207 C.ar      1 <0>        -0.0654 
       7 C5         5.0690    1.2261    8.4499 C.ar      1 <0>        -0.1341 
       8 C6         5.0685    2.0449    7.3144 C.ar      1 <0>         0.1883 
       9 C7         3.8771    2.6642    6.9185 C.ar      1 <0>        -0.2193 
      10 C8         2.6785    2.4114    7.5959 C.ar      1 <0>         0.1218 
      11 O2         1.4746    2.9384    7.2087 O.3       1 <0>        -0.3161 
      12 C9         1.1844    2.9908    5.8095 C.3       1 <0>         0.0284 
      13 N2         6.2598    2.2070    6.5683 N.am      1 <0>        -0.6855 
      14 C10        7.3723    1.5837    6.9463 C.2       1 <0>         0.7035 
      15 O3         7.3654    0.8542    7.9613 O.2       1 <0>        -0.5662 
      16 N3         8.4913    1.7370    6.2440 N.am      1 <0>        -0.7422 
      17 C11        9.7208    1.0480    6.6617 C.3       1 <0>         0.1412 
      18 C12        9.4902   -0.4623    6.6387 C.3       1 <0>        -0.0858 
      19 C13        9.1941   -0.9038    5.2254 C.ar      1 <0>        -0.1209 
      20 C14        7.8779   -0.9302    4.7490 C.ar      1 <0>        -0.0699 
      21 C15        7.6061   -1.3045    3.4275 C.ar      1 <0>        -0.1435 
      22 C16        8.6480   -1.6831    2.5782 C.ar      1 <0>         0.1285 
      23 C17        9.9646   -1.6795    3.0539 C.ar      1 <0>        -0.2085 
      24 C18       10.2343   -1.2880    4.3708 C.ar      1 <0>        -0.0706 
      25 O4         8.3784   -2.0532    1.2870 O.3       1 <0>        -0.2897 
      26 C19        9.0979   -3.1631    0.7433 C.3       1 <0>         0.0392 
      27 C20        8.8070   -4.3992    1.5602 C.2       1 <0>         0.5189 
      28 O5         9.6576   -4.8405    2.3314 O.2       1 <0>        -0.5163 
      29 N4         7.6311   -5.0101    1.4454 N.am      1 <0>        -0.8501 
      30 H1        -0.6225    1.0447   10.8270 H         1 <0>         0.0965 
      31 H2        -0.0787   -0.5556   11.3759 H         1 <0>         0.0914 
      32 H3         0.3090    0.8909   12.3325 H         1 <0>         0.0912 
      33 H4         0.6431    1.9073    9.1574 H         1 <0>         0.4136 
      34 H5         3.8806    0.2407    9.9322 H         1 <0>         0.1501 
      35 H6         5.9943    0.7931    8.8003 H         1 <0>         0.1469 
      36 H7         3.9257    3.3130    6.0564 H         1 <0>         0.1349 
      37 H8         1.1847    1.9822    5.4016 H         1 <0>         0.1017 
      38 H9         0.2064    3.4432    5.6593 H         1 <0>         0.0561 
      39 H10        1.9417    3.5871    5.3049 H         1 <0>         0.0561 
      40 H11        6.2654    2.7964    5.7482 H         1 <0>         0.4065 
      41 H12        8.4957    2.3265    5.4240 H         1 <0>         0.3980 
      42 H13        9.9858    1.3599    7.6698 H         1 <0>         0.0719 
      43 H14       10.5285    1.3028    5.9786 H         1 <0>         0.0706 
      44 H15        8.6475   -0.7096    7.2808 H         1 <0>         0.0792 
      45 H16       10.3825   -0.9701    6.9986 H         1 <0>         0.0805 
      46 H17        7.0541   -0.6602    5.3930 H         1 <0>         0.1321 
      47 H18        6.5914   -1.3100    3.0576 H         1 <0>         0.1348 
      48 H19       10.7702   -1.9767    2.3989 H         1 <0>         0.1285 
      49 H20       11.2585   -1.2891    4.7133 H         1 <0>         0.1266 
      50 H21       10.1648   -2.9517    0.7715 H         1 <0>         0.0957 
      51 H22        8.7870   -3.3266   -0.2864 H         1 <0>         0.0953 
      52 H23        6.9333   -4.6468    0.8120 H         1 <0>         0.4036 
      53 H24        7.4364   -5.8368    1.9921 H         1 <0>         0.4104 
@<TRIPOS>BOND
       1        1        2 1        
       2        1       30 1        
       3        1       31 1        
       4        1       32 1        
       5        2        3 2        
       6        2        4 am       
       7        4        5 1        
       8        4       33 1        
       9        5       10 ar       
      10        5        6 ar       
      11        6        7 ar       
      12        6       34 1        
      13        7        8 ar       
      14        7       35 1        
      15        8        9 ar       
      16        8       13 1        
      17        9       10 ar       
      18        9       36 1        
      19       10       11 1        
      20       11       12 1        
      21       12       37 1        
      22       12       38 1        
      23       12       39 1        
      24       13       14 am       
      25       13       40 1        
      26       14       15 2        
      27       14       16 am       
      28       16       17 1        
      29       16       41 1        
      30       17       18 1        
      31       17       42 1        
      32       17       43 1        
      33       18       19 1        
      34       18       44 1        
      35       18       45 1        
      36       19       24 ar       
      37       19       20 ar       
      38       20       21 ar       
      39       20       46 1        
      40       21       22 ar       
      41       21       47 1        
      42       22       23 ar       
      43       22       25 1        
      44       23       24 ar       
      45       23       48 1        
      46       24       49 1        
      47       25       26 1        
      48       26       27 1        
      49       26       50 1        
      50       26       51 1        
      51       27       28 2        
      52       27       29 am       
      53       29       52 1        
      54       29       53 1        

