#        1GCZ_R01_S0001_C0000_L00003_S0001_C0030_G0010_E0001.mol2
#        Tue Jun  6 14:04:27 2017
#        Descriptor:     12     8     2     9     9    13
#        Energy - RMSD - RMSD MassCentre:     -64.2361    999.9999    999.9999
#        Receptor:       1  Surface Point:     1  Conformer:     0
#        Ligand:         3  Surface Point:     1  Conformer:    30
#        BUDE Formal Charge: 0
#        ATOM Count: 58
#        Heavy ATOM Count: 30
@<TRIPOS>MOLECULE
ZINC61580633_1GCZ_R01_S0001_C0000_L00003_S0001_C0030_G0010_E0001
 58 59 0 0 0
SMALL
USER_CHARGES
@<TRIPOS>ATOM
       1 C1         0.7039   -0.8705   -1.0298 C.3       1 <0>        -0.1532 
       2 C2         0.3252   -0.7435    0.4429 C.3       1 <0>        -0.1224 
       3 C3         0.5987    0.6832    0.9171 C.3       1 <0>        -0.1198 
       4 C4         0.2193    0.8103    2.3918 C.3       1 <0>         0.0610 
       5 O1        -1.1838    0.5799    2.5438 O.3       1 <0>        -0.3878 
       6 C5        -1.5983    0.6861    3.9082 C.3       1 <0>         0.0487 
       7 C6        -0.8641   -0.3600    4.7457 C.3       1 <0>         0.1244 
       8 N1        -1.2902   -0.2508    6.1482 N.am      1 <0>        -0.7216 
       9 C7        -0.7779   -1.0680    7.0640 C.2       1 <0>         0.5161 
      10 O2        -1.1336   -0.9777    8.2379 O.2       1 <0>        -0.5151 
      11 C8         0.2411   -2.1074    6.6621 C.3       1 <0>         0.0490 
      12 O3         1.4673   -1.4608    6.3112 O.3       1 <0>        -0.3194 
      13 C9         2.5028   -2.2350    5.9226 C.2       1 <0>         0.5417 
      14 O4         2.3760   -3.4477    5.8789 O.2       1 <0>        -0.5337 
      15 C10        3.7924   -1.6123    5.5497 C.2       1 <0>        -0.2559 
      16 C11        4.9927   -2.3661    5.1236 C.2       1 <0>        -0.0791 
      17 C12        6.0276   -1.5660    4.8567 C.2       1 <0>        -0.2585 
      18 S1         5.6442    0.1462    5.0884 S.3       1 <0>         0.3028 
      19 C13        3.9991   -0.2887    5.5754 C.2       1 <0>         0.0893 
      20 N2         3.0226    0.5950    5.9527 N.am      1 <0>        -0.6099 
      21 C14        3.2741    1.9010    5.9628 C.2       1 <0>         0.5551 
      22 O5         4.3842    2.3157    5.6332 O.2       1 <0>        -0.4939 
      23 C15        2.2181    2.8543    6.3706 C.ar      1 <0>        -0.1466 
      24 C16        2.5270    4.2198    6.3697 C.ar      1 <0>        -0.0772 
      25 C17        1.5943    5.1639    6.8153 C.ar      1 <0>        -0.1241 
      26 C18        0.3378    4.7586    7.2802 C.ar      1 <0>        -0.0446 
      27 C19        0.0068    3.3992    7.2324 C.ar      1 <0>        -0.1261 
      28 C20        0.9317    2.4611    6.7587 C.ar      1 <0>        -0.0460 
      29 C21       -0.6309    5.7865    7.8146 C.3       1 <0>        -0.0928 
      30 C22       -0.4163    5.9539    9.3161 C.3       1 <0>        -0.1485 
      31 H1         1.7638   -0.6560   -1.1509 H         1 <0>         0.0567 
      32 H2         0.1210   -0.1631   -1.6158 H         1 <0>         0.0554 
      33 H3         0.4968   -1.8825   -1.3710 H         1 <0>         0.0557 
      34 H4        -0.7318   -0.9699    0.5670 H         1 <0>         0.0632 
      35 H5         0.9177   -1.4405    1.0319 H         1 <0>         0.0635 
      36 H6         1.6553    0.9106    0.7942 H         1 <0>         0.0711 
      37 H7         0.0059    1.3811    0.3293 H         1 <0>         0.0704 
      38 H8         0.7720    0.0756    2.9737 H         1 <0>         0.0498 
      39 H9         0.4622    1.8105    2.7444 H         1 <0>         0.0505 
      40 H10       -2.6709    0.5166    3.9765 H         1 <0>         0.0584 
      41 H11       -1.3631    1.6800    4.2831 H         1 <0>         0.0702 
      42 H12        0.2086   -0.1909    4.6790 H         1 <0>         0.0872 
      43 H13       -1.0992   -1.3544    4.3722 H         1 <0>         0.0805 
      44 H14       -1.9718    0.4444    6.4171 H         1 <0>         0.4058 
      45 H15        0.4150   -2.7864    7.4942 H         1 <0>         0.1008 
      46 H16       -0.1301   -2.6683    5.8070 H         1 <0>         0.0999 
      47 H17        5.0037   -3.4423    5.0338 H         1 <0>         0.1557 
      48 H18        6.9847   -1.9388    4.5233 H         1 <0>         0.1929 
      49 H19        2.1111    0.2546    6.2234 H         1 <0>         0.4317 
      50 H20        3.4960    4.5505    6.0263 H         1 <0>         0.1287 
      51 H21        1.8416    6.2151    6.8041 H         1 <0>         0.1326 
      52 H22       -0.9727    3.0854    7.5621 H         1 <0>         0.1342 
      53 H23        0.5998    1.4357    6.6895 H         1 <0>         0.1410 
      54 H24       -1.6501    5.4548    7.6280 H         1 <0>         0.0777 
      55 H25       -0.4613    6.7379    7.3149 H         1 <0>         0.0771 
      56 H26        0.5993    6.2977    9.5005 H         1 <0>         0.0623 
      57 H27       -0.5724    4.9986    9.8129 H         1 <0>         0.0572 
      58 H28       -1.1232    6.6847    9.7034 H         1 <0>         0.0578 
@<TRIPOS>BOND
       1        1        2 1        
       2        1       31 1        
       3        1       32 1        
       4        1       33 1        
       5        2        3 1        
       6        2       34 1        
       7        2       35 1        
       8        3        4 1        
       9        3       36 1        
      10        3       37 1        
      11        4        5 1        
      12        4       38 1        
      13        4       39 1        
      14        5        6 1        
      15        6        7 1        
      16        6       40 1        
      17        6       41 1        
      18        7        8 1        
      19        7       42 1        
      20        7       43 1        
      21        8        9 am       
      22        8       44 1        
      23        9       10 2        
      24        9       11 1        
      25       11       12 1        
      26       11       45 1        
      27       11       46 1        
      28       12       13 1        
      29       13       14 2        
      30       13       15 1        
      31       15       19 2        
      32       15       16 1        
      33       16       17 2        
      34       16       47 1        
      35       17       18 1        
      36       17       48 1        
      37       18       19 1        
      38       19       20 1        
      39       20       21 am       
      40       20       49 1        
      41       21       22 2        
      42       21       23 1        
      43       23       28 ar       
      44       23       24 ar       
      45       24       25 ar       
      46       24       50 1        
      47       25       26 ar       
      48       25       51 1        
      49       26       27 ar       
      50       26       29 1        
      51       27       28 ar       
      52       27       52 1        
      53       28       53 1        
      54       29       30 1        
      55       29       54 1        
      56       29       55 1        
      57       30       56 1        
      58       30       57 1        
      59       30       58 1        

