#        1GCZ_R01_S0001_C0000_L00015_S0001_C0024_G0010_E0001.mol2
#        Tue Jun  6 10:00:23 2017
#        Descriptor:     29     7    20     9     5    14
#        Energy - RMSD - RMSD MassCentre:     -58.7816    999.9999    999.9999
#        Receptor:       1  Surface Point:     1  Conformer:     0
#        Ligand:        15  Surface Point:     1  Conformer:    24
#        BUDE Formal Charge: 0
#        ATOM Count: 53
#        Heavy ATOM Count: 29
@<TRIPOS>MOLECULE
ZINC61646583_1GCZ_R01_S0001_C0000_L00015_S0001_C0024_G0010_E0001
 53 54 0 0 0
SMALL
USER_CHARGES
@<TRIPOS>ATOM
       1 C1        -0.8287    1.7652   -0.0389 C.3       1 <0>        -0.1727 
       2 C2        -0.8011    1.0226    1.2756 C.2       1 <0>         0.5094 
       3 O1        -1.5566    0.0697    1.4606 O.2       1 <0>        -0.5291 
       4 N1         0.0406    1.3991    2.2340 N.am      1 <0>        -0.6649 
       5 C3         0.0664    0.7033    3.4657 C.ar      1 <0>         0.0992 
       6 C4        -0.7720   -0.3942    3.7087 C.ar      1 <0>        -0.0654 
       7 C5        -0.8064   -0.9840    4.9779 C.ar      1 <0>        -0.1341 
       8 C6         0.0838   -0.5634    5.9732 C.ar      1 <0>         0.1883 
       9 C7         0.9370    0.5162    5.7157 C.ar      1 <0>        -0.2193 
      10 C8         0.9635    1.1238    4.4549 C.ar      1 <0>         0.1218 
      11 O2         1.8257    2.1381    4.1311 O.3       1 <0>        -0.3161 
      12 C9         3.1725    2.0499    4.6034 C.3       1 <0>         0.0284 
      13 N2         0.1305   -1.2542    7.2072 N.am      1 <0>        -0.6855 
      14 C10       -0.6682   -2.2966    7.4175 C.2       1 <0>         0.7035 
      15 O3        -1.4606   -2.6665    6.5243 O.2       1 <0>        -0.5662 
      16 N3        -0.6231   -2.9450    8.5780 N.am      1 <0>        -0.7422 
      17 C11       -1.5058   -4.0972    8.8103 C.3       1 <0>         0.1412 
      18 C12       -1.2018   -5.1860    7.7823 C.3       1 <0>        -0.0858 
      19 C13        0.2162   -5.6705    7.9680 C.ar      1 <0>        -0.1209 
      20 C14        1.2733   -5.0566    7.2856 C.ar      1 <0>        -0.0699 
      21 C15        2.5923   -5.4814    7.4853 C.ar      1 <0>        -0.1435 
      22 C16        2.8627   -6.5445    8.3495 C.ar      1 <0>         0.1285 
      23 C17        1.8086   -7.1771    9.0192 C.ar      1 <0>        -0.2085 
      24 C18        0.4926   -6.7382    8.8303 C.ar      1 <0>        -0.0706 
      25 O4         4.1539   -6.9609    8.5394 O.3       1 <0>        -0.2897 
      26 C19        4.4001   -8.3673    8.6203 C.3       1 <0>         0.0392 
      27 C20        3.9752   -9.0268    7.3302 C.2       1 <0>         0.5189 
      28 O5         2.9431   -9.6949    7.2923 O.2       1 <0>        -0.5163 
      29 N4         4.7172   -8.8849    6.2355 N.am      1 <0>        -0.8501 
      30 H1        -0.0692    2.5441   -0.0307 H         1 <0>         0.0965 
      31 H2        -0.6276    1.0702   -0.8516 H         1 <0>         0.0914 
      32 H3        -1.8091    2.2151   -0.1801 H         1 <0>         0.0912 
      33 H4         0.6612    2.1814    2.0832 H         1 <0>         0.4136 
      34 H5        -1.3983   -0.8022    2.9292 H         1 <0>         0.1501 
      35 H6        -1.5116   -1.7749    5.1864 H         1 <0>         0.1469 
      36 H7         1.5858    0.8299    6.5201 H         1 <0>         0.1349 
      37 H8         3.6401    1.1546    4.1990 H         1 <0>         0.1017 
      38 H9         3.7279    2.9277    4.2798 H         1 <0>         0.0561 
      39 H10        3.1724    2.0005    5.6903 H         1 <0>         0.0561 
      40 H11        0.7708   -0.9553    7.9288 H         1 <0>         0.4065 
      41 H12        0.0176   -2.6453    9.2988 H         1 <0>         0.3980 
      42 H13       -2.5431   -3.7842    8.7121 H         1 <0>         0.0719 
      43 H14       -1.3371   -4.4862    9.8123 H         1 <0>         0.0706 
      44 H15       -1.3187   -4.7801    6.7798 H         1 <0>         0.0792 
      45 H16       -1.8906   -6.0168    7.9205 H         1 <0>         0.0805 
      46 H17        1.0867   -4.2453    6.5975 H         1 <0>         0.1321 
      47 H18        3.4078   -4.9968    6.9690 H         1 <0>         0.1348 
      48 H19        2.0168   -8.0023    9.6841 H         1 <0>         0.1285 
      49 H20       -0.3030   -7.2393    9.3615 H         1 <0>         0.1266 
      50 H21        3.8316   -8.7873    9.4475 H         1 <0>         0.0957 
      51 H22        5.4616   -8.5402    8.7843 H         1 <0>         0.0953 
      52 H23        4.4330   -9.3261    5.3725 H         1 <0>         0.4036 
      53 H24        5.5645   -8.3362    6.2678 H         1 <0>         0.4104 
@<TRIPOS>BOND
       1        1        2 1        
       2        1       30 1        
       3        1       31 1        
       4        1       32 1        
       5        2        3 2        
       6        2        4 am       
       7        4        5 1        
       8        4       33 1        
       9        5       10 ar       
      10        5        6 ar       
      11        6        7 ar       
      12        6       34 1        
      13        7        8 ar       
      14        7       35 1        
      15        8        9 ar       
      16        8       13 1        
      17        9       10 ar       
      18        9       36 1        
      19       10       11 1        
      20       11       12 1        
      21       12       37 1        
      22       12       38 1        
      23       12       39 1        
      24       13       14 am       
      25       13       40 1        
      26       14       15 2        
      27       14       16 am       
      28       16       17 1        
      29       16       41 1        
      30       17       18 1        
      31       17       42 1        
      32       17       43 1        
      33       18       19 1        
      34       18       44 1        
      35       18       45 1        
      36       19       24 ar       
      37       19       20 ar       
      38       20       21 ar       
      39       20       46 1        
      40       21       22 ar       
      41       21       47 1        
      42       22       23 ar       
      43       22       25 1        
      44       23       24 ar       
      45       23       48 1        
      46       24       49 1        
      47       25       26 1        
      48       26       27 1        
      49       26       50 1        
      50       26       51 1        
      51       27       28 2        
      52       27       29 am       
      53       29       52 1        
      54       29       53 1        

