#        1GCZ_R01_S0001_C0000_L00015_S0001_C0025_G0010_E0001.mol2
#        Tue Jun  6 10:00:24 2017
#        Descriptor:     17     1    26     9    11    13
#        Energy - RMSD - RMSD MassCentre:     -66.1497    999.9999    999.9999
#        Receptor:       1  Surface Point:     1  Conformer:     0
#        Ligand:        15  Surface Point:     1  Conformer:    25
#        BUDE Formal Charge: 0
#        ATOM Count: 53
#        Heavy ATOM Count: 29
@<TRIPOS>MOLECULE
ZINC61646583_1GCZ_R01_S0001_C0000_L00015_S0001_C0025_G0010_E0001
 53 54 0 0 0
SMALL
USER_CHARGES
@<TRIPOS>ATOM
       1 C1         2.6439    9.4217    9.5526 C.3       1 <0>        -0.1727 
       2 C2         2.2497    8.0492    9.0616 C.2       1 <0>         0.5094 
       3 O1         1.0666    7.7127    9.0581 O.2       1 <0>        -0.5291 
       4 N1         3.1823    7.2037    8.6326 N.am      1 <0>        -0.6649 
       5 C3         2.8130    5.9177    8.1726 C.ar      1 <0>         0.0992 
       6 C4         1.4737    5.5030    8.1437 C.ar      1 <0>        -0.0654 
       7 C5         1.1542    4.1849    7.7966 C.ar      1 <0>        -0.1341 
       8 C6         2.1557    3.3110    7.3568 C.ar      1 <0>         0.1883 
       9 C7         3.4883    3.7395    7.3632 C.ar      1 <0>        -0.2193 
      10 C8         3.8179    5.0504    7.7275 C.ar      1 <0>         0.1218 
      11 O2         5.0970    5.5392    7.6864 O.3       1 <0>        -0.3161 
      12 C9         5.9195    5.1733    6.5755 C.3       1 <0>         0.0284 
      13 N2         1.8034    2.0249    6.8836 N.am      1 <0>        -0.6855 
      14 C10        0.5273    1.6511    6.8580 C.2       1 <0>         0.7035 
      15 O3        -0.3616    2.4366    7.2522 O.2       1 <0>        -0.5662 
      16 N3         0.1977    0.4419    6.4128 N.am      1 <0>        -0.7422 
      17 C11       -1.2128    0.0289    6.3844 C.3       1 <0>         0.1412 
      18 C12       -1.9999    0.9701    5.4738 C.3       1 <0>        -0.0858 
      19 C13       -1.4773    0.8567    4.0617 C.ar      1 <0>        -0.1209 
      20 C14       -0.4338    1.6793    3.6208 C.ar      1 <0>        -0.0699 
      21 C15        0.0758    1.5495    2.3232 C.ar      1 <0>        -0.1435 
      22 C16       -0.4739    0.6132    1.4450 C.ar      1 <0>         0.1285 
      23 C17       -1.5317   -0.1983    1.8721 C.ar      1 <0>        -0.2085 
      24 C18       -2.0272   -0.0777    3.1760 C.ar      1 <0>        -0.0706 
      25 O4         0.0238    0.4917    0.1745 O.3       1 <0>        -0.2897 
      26 C19       -0.9061    0.2977   -0.8945 C.3       1 <0>         0.0392 
      27 C20       -0.1553    0.1890   -2.2000 C.2       1 <0>         0.5189 
      28 O5        -0.0309   -0.9050   -2.7482 O.2       1 <0>        -0.5163 
      29 N4         0.3710    1.2765   -2.7565 N.am      1 <0>        -0.8501 
      30 H1         3.7187    9.5503    9.4435 H         1 <0>         0.0965 
      31 H2         2.1261   10.1783    8.9666 H         1 <0>         0.0914 
      32 H3         2.3702    9.5237   10.6005 H         1 <0>         0.0912 
      33 H4         4.1540    7.4789    8.6351 H         1 <0>         0.4136 
      34 H5         0.6721    6.1858    8.3836 H         1 <0>         0.1501 
      35 H6         0.1309    3.8446    7.8544 H         1 <0>         0.1469 
      36 H7         4.2338    3.0250    7.0468 H         1 <0>         0.1349 
      37 H8         5.4621    5.5278    5.6541 H         1 <0>         0.1017 
      38 H9         6.9033    5.6237    6.6894 H         1 <0>         0.0561 
      39 H10        6.0179    4.0904    6.5390 H         1 <0>         0.0561 
      40 H11        2.5216    1.3902    6.5651 H         1 <0>         0.4065 
      41 H12        0.9167   -0.1919    6.0944 H         1 <0>         0.3980 
      42 H13       -1.6225    0.0706    7.3915 H         1 <0>         0.0719 
      43 H14       -1.2846   -0.9883    6.0049 H         1 <0>         0.0706 
      44 H15       -1.8831    1.9937    5.8234 H         1 <0>         0.0792 
      45 H16       -3.0529    0.6971    5.4945 H         1 <0>         0.0805 
      46 H17       -0.0056    2.4237    4.2757 H         1 <0>         0.1321 
      47 H18        0.8907    2.1750    1.9898 H         1 <0>         0.1348 
      48 H19       -1.9603   -0.9193    1.1918 H         1 <0>         0.1285 
      49 H20       -2.8407   -0.7179    3.4836 H         1 <0>         0.1266 
      50 H21       -1.5894    1.1432   -0.9377 H         1 <0>         0.0957 
      51 H22       -1.4699   -0.6168   -0.7224 H         1 <0>         0.0953 
      52 H23        0.8732    1.2038   -3.6297 H         1 <0>         0.4036 
      53 H24        0.2684    2.1742   -2.3054 H         1 <0>         0.4104 
@<TRIPOS>BOND
       1        1        2 1        
       2        1       30 1        
       3        1       31 1        
       4        1       32 1        
       5        2        3 2        
       6        2        4 am       
       7        4        5 1        
       8        4       33 1        
       9        5       10 ar       
      10        5        6 ar       
      11        6        7 ar       
      12        6       34 1        
      13        7        8 ar       
      14        7       35 1        
      15        8        9 ar       
      16        8       13 1        
      17        9       10 ar       
      18        9       36 1        
      19       10       11 1        
      20       11       12 1        
      21       12       37 1        
      22       12       38 1        
      23       12       39 1        
      24       13       14 am       
      25       13       40 1        
      26       14       15 2        
      27       14       16 am       
      28       16       17 1        
      29       16       41 1        
      30       17       18 1        
      31       17       42 1        
      32       17       43 1        
      33       18       19 1        
      34       18       44 1        
      35       18       45 1        
      36       19       24 ar       
      37       19       20 ar       
      38       20       21 ar       
      39       20       46 1        
      40       21       22 ar       
      41       21       47 1        
      42       22       23 ar       
      43       22       25 1        
      44       23       24 ar       
      45       23       48 1        
      46       24       49 1        
      47       25       26 1        
      48       26       27 1        
      49       26       50 1        
      50       26       51 1        
      51       27       28 2        
      52       27       29 am       
      53       29       52 1        
      54       29       53 1        

