#        1GCZ_R01_S0001_C0000_L00015_S0001_C0025_G0010_E0001.mol2
#        Tue Jun  6 14:17:04 2017
#        Descriptor:     17    36    25     9    10    13
#        Energy - RMSD - RMSD MassCentre:     -60.5146    999.9999    999.9999
#        Receptor:       1  Surface Point:     1  Conformer:     0
#        Ligand:        15  Surface Point:     1  Conformer:    25
#        BUDE Formal Charge: 0
#        ATOM Count: 53
#        Heavy ATOM Count: 29
@<TRIPOS>MOLECULE
ZINC61646583_1GCZ_R01_S0001_C0000_L00015_S0001_C0025_G0010_E0001
 53 54 0 0 0
SMALL
USER_CHARGES
@<TRIPOS>ATOM
       1 C1         3.4293    7.2014   10.6312 C.3       1 <0>        -0.1727 
       2 C2         2.8393    6.0187    9.9010 C.2       1 <0>         0.5094 
       3 O1         1.6188    5.9009    9.8044 O.2       1 <0>        -0.5291 
       4 N1         3.6399    5.1036    9.3621 N.am      1 <0>        -0.6649 
       5 C3         3.0871    3.9953    8.6780 C.ar      1 <0>         0.0992 
       6 C4         1.7012    3.8333    8.5382 C.ar      1 <0>        -0.0654 
       7 C5         1.1853    2.6667    7.9613 C.ar      1 <0>        -0.1341 
       8 C6         2.0495    1.7138    7.4090 C.ar      1 <0>         0.1883 
       9 C7         3.4326    1.8940    7.5288 C.ar      1 <0>        -0.2193 
      10 C8         3.9561    3.0490    8.1217 C.ar      1 <0>         0.1218 
      11 O2         5.2995    3.3050    8.2034 O.3       1 <0>        -0.3161 
      12 C9         6.1130    2.9862    7.0715 C.3       1 <0>         0.0284 
      13 N2         1.5143    0.6045    6.7124 N.am      1 <0>        -0.6855 
      14 C10        0.1972    0.4706    6.5848 C.2       1 <0>         0.7035 
      15 O3        -0.5684    1.3254    7.0806 O.2       1 <0>        -0.5662 
      16 N3        -0.3044   -0.5725    5.9297 N.am      1 <0>        -0.7422 
      17 C11       -1.7601   -0.7203    5.7886 C.3       1 <0>         0.1412 
      18 C12       -2.3219    0.4805    5.0291 C.3       1 <0>        -0.0858 
      19 C13       -1.7429    0.5088    3.6348 C.ar      1 <0>        -0.1209 
      20 C14       -0.5514    1.1955    3.3726 C.ar      1 <0>        -0.0699 
      21 C15        0.0052    1.1915    2.0880 C.ar      1 <0>        -0.1435 
      22 C16       -0.6413    0.5227    1.0464 C.ar      1 <0>         0.1285 
      23 C17       -1.8442   -0.1485    1.2963 C.ar      1 <0>        -0.2085 
      24 C18       -2.3888   -0.1568    2.5861 C.ar      1 <0>        -0.0706 
      25 O4        -0.0966    0.5244   -0.2106 O.3       1 <0>        -0.2897 
      26 C19       -0.9808    0.6743   -1.3245 C.3       1 <0>         0.0392 
      27 C20       -0.1829    0.6496   -2.6061 C.2       1 <0>         0.5189 
      28 O5        -0.2122   -0.3449   -3.3294 O.2       1 <0>        -0.5163 
      29 N4         0.5513    1.7034   -2.9523 N.am      1 <0>        -0.8501 
      30 H1         4.5149    7.1548   10.5781 H         1 <0>         0.0965 
      31 H2         3.0822    8.1227   10.1679 H         1 <0>         0.0914 
      32 H3         3.1150    7.1777   11.6724 H         1 <0>         0.0912 
      33 H4         4.6422    5.1992    9.4410 H         1 <0>         0.4136 
      34 H5         1.0134    4.5982    8.8671 H         1 <0>         0.1501 
      35 H6         0.1177    2.5072    7.9293 H         1 <0>         0.1469 
      36 H7         4.0644    1.1207    7.1175 H         1 <0>         0.1349 
      37 H8         5.7775    3.5613    6.2110 H         1 <0>         0.1017 
      38 H9         7.1502    3.2316    7.2904 H         1 <0>         0.0561 
      39 H10        6.0295    1.9236    6.8534 H         1 <0>         0.0561 
      40 H11        2.1329   -0.0861    6.3119 H         1 <0>         0.4065 
      41 H12        0.3151   -1.2624    5.5294 H         1 <0>         0.3980 
      42 H13       -2.2160   -0.7720    6.7751 H         1 <0>         0.0719 
      43 H14       -1.9796   -1.6332    5.2387 H         1 <0>         0.0706 
      44 H15       -2.0552    1.3965    5.5519 H         1 <0>         0.0792 
      45 H16       -3.4051    0.3976    4.9710 H         1 <0>         0.0805 
      46 H17       -0.0435    1.7359    4.1578 H         1 <0>         0.1321 
      47 H18        0.9322    1.7096    1.8912 H         1 <0>         0.1348 
      48 H19       -2.3470   -0.6619    0.4902 H         1 <0>         0.1285 
      49 H20       -3.3154   -0.6853    2.7550 H         1 <0>         0.1266 
      50 H21       -1.5080    1.6224   -1.2431 H         1 <0>         0.0957 
      51 H22       -1.6998   -0.1422   -1.3284 H         1 <0>         0.0953 
      52 H23        1.0851    1.6868   -3.8096 H         1 <0>         0.4036 
      53 H24        0.5749    2.5193   -2.3577 H         1 <0>         0.4104 
@<TRIPOS>BOND
       1        1        2 1        
       2        1       30 1        
       3        1       31 1        
       4        1       32 1        
       5        2        3 2        
       6        2        4 am       
       7        4        5 1        
       8        4       33 1        
       9        5       10 ar       
      10        5        6 ar       
      11        6        7 ar       
      12        6       34 1        
      13        7        8 ar       
      14        7       35 1        
      15        8        9 ar       
      16        8       13 1        
      17        9       10 ar       
      18        9       36 1        
      19       10       11 1        
      20       11       12 1        
      21       12       37 1        
      22       12       38 1        
      23       12       39 1        
      24       13       14 am       
      25       13       40 1        
      26       14       15 2        
      27       14       16 am       
      28       16       17 1        
      29       16       41 1        
      30       17       18 1        
      31       17       42 1        
      32       17       43 1        
      33       18       19 1        
      34       18       44 1        
      35       18       45 1        
      36       19       24 ar       
      37       19       20 ar       
      38       20       21 ar       
      39       20       46 1        
      40       21       22 ar       
      41       21       47 1        
      42       22       23 ar       
      43       22       25 1        
      44       23       24 ar       
      45       23       48 1        
      46       24       49 1        
      47       25       26 1        
      48       26       27 1        
      49       26       50 1        
      50       26       51 1        
      51       27       28 2        
      52       27       29 am       
      53       29       52 1        
      54       29       53 1        

