#        1GCZ_R01_S0001_C0000_L00015_S0001_C0026_G0010_E0001.mol2
#        Tue Jun  6 10:00:25 2017
#        Descriptor:     23     3    35    15     9    13
#        Energy - RMSD - RMSD MassCentre:     -66.3505    999.9999    999.9999
#        Receptor:       1  Surface Point:     1  Conformer:     0
#        Ligand:        15  Surface Point:     1  Conformer:    26
#        BUDE Formal Charge: 0
#        ATOM Count: 53
#        Heavy ATOM Count: 29
@<TRIPOS>MOLECULE
ZINC61646583_1GCZ_R01_S0001_C0000_L00015_S0001_C0026_G0010_E0001
 53 54 0 0 0
SMALL
USER_CHARGES
@<TRIPOS>ATOM
       1 C1        -2.0121   -0.0799    4.5393 C.3       1 <0>        -0.1727 
       2 C2        -0.5517    0.2286    4.7673 C.2       1 <0>         0.5094 
       3 O1         0.3129   -0.4008    4.1595 O.2       1 <0>        -0.5291 
       4 N1        -0.1999    1.1813    5.6260 N.am      1 <0>        -0.6649 
       5 C3         1.1686    1.4703    5.8397 C.ar      1 <0>         0.0992 
       6 C4         2.1816    0.7816    5.1571 C.ar      1 <0>        -0.0654 
       7 C5         3.5249    1.0084    5.4793 C.ar      1 <0>        -0.1341 
       8 C6         3.8691    2.0112    6.3936 C.ar      1 <0>         0.1883 
       9 C7         2.8533    2.7135    7.0527 C.ar      1 <0>        -0.2193 
      10 C8         1.5069    2.4788    6.7500 C.ar      1 <0>         0.1218 
      11 O2         0.4785    3.1847    7.3165 O.3       1 <0>        -0.3161 
      12 C9         0.6489    4.5936    7.4922 C.3       1 <0>         0.0284 
      13 N2         5.2325    2.3207    6.6120 N.am      1 <0>        -0.6855 
      14 C10        6.1793    1.6608    5.9510 C.2       1 <0>         0.7035 
      15 O3         5.8646    0.7666    5.1361 O.2       1 <0>        -0.5662 
      16 N3         7.4604    1.9528    6.1573 N.am      1 <0>        -0.7422 
      17 C11        8.5068    1.2236    5.4266 C.3       1 <0>         0.1412 
      18 C12        9.8792    1.7490    5.8451 C.3       1 <0>        -0.0858 
      19 C13       10.9543    0.9998    5.0946 C.ar      1 <0>        -0.1209 
      20 C14       11.5020   -0.1762    5.6209 C.ar      1 <0>        -0.0699 
      21 C15       12.4725   -0.8909    4.9086 C.ar      1 <0>        -0.1435 
      22 C16       12.9243   -0.4195    3.6741 C.ar      1 <0>         0.1285 
      23 C17       12.3964    0.7670    3.1512 C.ar      1 <0>        -0.2085 
      24 C18       11.4136    1.4698    3.8583 C.ar      1 <0>        -0.0706 
      25 O4        13.8773   -1.1187    2.9815 O.3       1 <0>        -0.2897 
      26 C19       14.9047   -0.3765    2.3193 C.3       1 <0>         0.0392 
      27 C20       15.8440   -1.3311    1.6216 C.2       1 <0>         0.5189 
      28 O5        15.8039   -1.4483    0.3978 O.2       1 <0>        -0.5163 
      29 N4        16.7139   -2.0447    2.3308 N.am      1 <0>        -0.8501 
      30 H1        -2.6223    0.6004    5.1297 H         1 <0>         0.0965 
      31 H2        -2.2477    0.0434    3.4842 H         1 <0>         0.0914 
      32 H3        -2.2168   -1.1053    4.8396 H         1 <0>         0.0912 
      33 H4        -0.9089    1.6986    6.1256 H         1 <0>         0.4136 
      34 H5         1.9471    0.0727    4.3767 H         1 <0>         0.1501 
      35 H6         4.2991    0.4184    5.0115 H         1 <0>         0.1469 
      36 H7         3.1604    3.4568    7.7736 H         1 <0>         0.1349 
      37 H8         0.8011    5.0635    6.5227 H         1 <0>         0.1017 
      38 H9        -0.2396    5.0099    7.9623 H         1 <0>         0.0561 
      39 H10        1.5146    4.7774    8.1250 H         1 <0>         0.0561 
      40 H11        5.4867    3.0431    7.2703 H         1 <0>         0.4065 
      41 H12        7.7135    2.6755    6.8157 H         1 <0>         0.3980 
      42 H13        8.3717    1.3714    4.3573 H         1 <0>         0.0719 
      43 H14        8.4378    0.1628    5.6583 H         1 <0>         0.0706 
      44 H15       10.0127    1.6013    6.9147 H         1 <0>         0.0792 
      45 H16        9.9467    2.8098    5.6136 H         1 <0>         0.0805 
      46 H17       11.1824   -0.5497    6.5825 H         1 <0>         0.1321 
      47 H18       12.8833   -1.8057    5.3096 H         1 <0>         0.1348 
      48 H19       12.7490    1.1345    2.1988 H         1 <0>         0.1285 
      49 H20       11.0184    2.3802    3.4323 H         1 <0>         0.1266 
      50 H21       15.4583    0.2078    3.0512 H         1 <0>         0.0957 
      51 H22       14.4548    0.2906    1.5870 H         1 <0>         0.0953 
      52 H23       16.7458   -1.9477    3.3357 H         1 <0>         0.4036 
      53 H24       17.3422   -2.6831    1.8642 H         1 <0>         0.4104 
@<TRIPOS>BOND
       1        1        2 1        
       2        1       30 1        
       3        1       31 1        
       4        1       32 1        
       5        2        3 2        
       6        2        4 am       
       7        4        5 1        
       8        4       33 1        
       9        5       10 ar       
      10        5        6 ar       
      11        6        7 ar       
      12        6       34 1        
      13        7        8 ar       
      14        7       35 1        
      15        8        9 ar       
      16        8       13 1        
      17        9       10 ar       
      18        9       36 1        
      19       10       11 1        
      20       11       12 1        
      21       12       37 1        
      22       12       38 1        
      23       12       39 1        
      24       13       14 am       
      25       13       40 1        
      26       14       15 2        
      27       14       16 am       
      28       16       17 1        
      29       16       41 1        
      30       17       18 1        
      31       17       42 1        
      32       17       43 1        
      33       18       19 1        
      34       18       44 1        
      35       18       45 1        
      36       19       24 ar       
      37       19       20 ar       
      38       20       21 ar       
      39       20       46 1        
      40       21       22 ar       
      41       21       47 1        
      42       22       23 ar       
      43       22       25 1        
      44       23       24 ar       
      45       23       48 1        
      46       24       49 1        
      47       25       26 1        
      48       26       27 1        
      49       26       50 1        
      50       26       51 1        
      51       27       28 2        
      52       27       29 am       
      53       29       52 1        
      54       29       53 1        

