#        1GCZ_R01_S0001_C0000_L00015_S0001_C0027_G0010_E0001.mol2
#        Tue Jun  6 14:17:07 2017
#        Descriptor:     14    32    25     9    10    12
#        Energy - RMSD - RMSD MassCentre:     -61.8327    999.9999    999.9999
#        Receptor:       1  Surface Point:     1  Conformer:     0
#        Ligand:        15  Surface Point:     1  Conformer:    27
#        BUDE Formal Charge: 0
#        ATOM Count: 53
#        Heavy ATOM Count: 29
@<TRIPOS>MOLECULE
ZINC61646583_1GCZ_R01_S0001_C0000_L00015_S0001_C0027_G0010_E0001
 53 54 0 0 0
SMALL
USER_CHARGES
@<TRIPOS>ATOM
       1 C1         2.9536    4.3467   12.8295 C.3       1 <0>        -0.1727 
       2 C2         2.2671    3.9074   11.5584 C.2       1 <0>         0.5094 
       3 O1         1.0794    3.5878   11.5787 O.2       1 <0>        -0.5291 
       4 N1         2.9470    3.8657   10.4161 N.am      1 <0>        -0.6649 
       5 C3         2.3037    3.4539    9.2251 C.ar      1 <0>         0.0992 
       6 C4         0.9487    3.0930    9.2074 C.ar      1 <0>        -0.0654 
       7 C5         0.3749    2.5767    8.0395 C.ar      1 <0>        -0.1341 
       8 C6         1.1145    2.5349    6.8516 C.ar      1 <0>         0.1883 
       9 C7         2.4599    2.9214    6.8698 C.ar      1 <0>        -0.2193 
      10 C8         3.0463    3.4206    8.0387 C.ar      1 <0>         0.1218 
      11 O2         4.3378    3.8746    8.0929 O.3       1 <0>        -0.3161 
      12 C9         4.8228    4.6500    6.9937 C.3       1 <0>         0.0284 
      13 N2         0.4847    2.1356    5.6491 N.am      1 <0>        -0.6855 
      14 C10       -0.8029    1.8024    5.6505 C.2       1 <0>         0.7035 
      15 O3        -1.4572    1.8421    6.7150 O.2       1 <0>        -0.5662 
      16 N3        -1.3937    1.4273    4.5194 N.am      1 <0>        -0.7422 
      17 C11       -0.6230    1.3813    3.2686 C.3       1 <0>         0.1412 
      18 C12       -1.5309    0.9224    2.1286 C.3       1 <0>        -0.0858 
      19 C13       -0.7392    0.8751    0.8436 C.ar      1 <0>        -0.1209 
      20 C14       -0.6587    2.0010    0.0154 C.ar      1 <0>        -0.0699 
      21 C15        0.1051    1.9693   -1.1576 C.ar      1 <0>        -0.1435 
      22 C16        0.7733    0.7999   -1.5270 C.ar      1 <0>         0.1285 
      23 C17        0.6801   -0.3365   -0.7146 C.ar      1 <0>        -0.2085 
      24 C18       -0.0705   -0.2956    0.4665 C.ar      1 <0>        -0.0706 
      25 O4         1.5162    0.7704   -2.6777 O.3       1 <0>        -0.2897 
      26 C19        1.4512   -0.4060   -3.4881 C.3       1 <0>         0.0392 
      27 C20        0.0295   -0.6203   -3.9495 C.2       1 <0>         0.5189 
      28 O5        -0.6530   -1.5104   -3.4447 O.2       1 <0>        -0.5163 
      29 N4        -0.4840    0.1536   -4.9015 N.am      1 <0>        -0.8501 
      30 H1         3.9817    4.6253   12.6079 H         1 <0>         0.0965 
      31 H2         2.4275    5.2023   13.2479 H         1 <0>         0.0914 
      32 H3         2.9452    3.5289   13.5468 H         1 <0>         0.0912 
      33 H4         3.9221    4.1277   10.3983 H         1 <0>         0.4136 
      34 H5         0.3286    3.2075   10.0842 H         1 <0>         0.1501 
      35 H6        -0.6454    2.2227    8.0505 H         1 <0>         0.1469 
      36 H7         3.0039    2.8443    5.9400 H         1 <0>         0.1349 
      37 H8         4.2209    5.5507    6.8925 H         1 <0>         0.1017 
      38 H9         5.8600    4.9246    7.1740 H         1 <0>         0.0561 
      39 H10        4.7560    4.0637    6.0797 H         1 <0>         0.0561 
      40 H11        1.0132    2.1035    4.7891 H         1 <0>         0.4065 
      41 H12       -2.3714    1.1745    4.5205 H         1 <0>         0.3980 
      42 H13        0.2039    0.6827    3.3783 H         1 <0>         0.0719 
      43 H14       -0.2338    2.3728    3.0465 H         1 <0>         0.0706 
      44 H15       -2.3576    1.6213    2.0205 H         1 <0>         0.0792 
      45 H16       -1.9200   -0.0687    2.3523 H         1 <0>         0.0805 
      46 H17       -1.1823    2.9103    0.2706 H         1 <0>         0.1321 
      47 H18        0.1780    2.8434   -1.7875 H         1 <0>         0.1348 
      48 H19        1.1928   -1.2424   -1.0024 H         1 <0>         0.1285 
      49 H20       -0.1237   -1.1836    1.0788 H         1 <0>         0.1266 
      50 H21        1.7776   -1.2652   -2.9058 H         1 <0>         0.0957 
      51 H22        2.0998   -0.2859   -4.3533 H         1 <0>         0.0953 
      52 H23        0.0773    0.8844   -5.3153 H         1 <0>         0.4036 
      53 H24       -1.4349    0.0105   -5.2100 H         1 <0>         0.4104 
@<TRIPOS>BOND
       1        1        2 1        
       2        1       30 1        
       3        1       31 1        
       4        1       32 1        
       5        2        3 2        
       6        2        4 am       
       7        4        5 1        
       8        4       33 1        
       9        5       10 ar       
      10        5        6 ar       
      11        6        7 ar       
      12        6       34 1        
      13        7        8 ar       
      14        7       35 1        
      15        8        9 ar       
      16        8       13 1        
      17        9       10 ar       
      18        9       36 1        
      19       10       11 1        
      20       11       12 1        
      21       12       37 1        
      22       12       38 1        
      23       12       39 1        
      24       13       14 am       
      25       13       40 1        
      26       14       15 2        
      27       14       16 am       
      28       16       17 1        
      29       16       41 1        
      30       17       18 1        
      31       17       42 1        
      32       17       43 1        
      33       18       19 1        
      34       18       44 1        
      35       18       45 1        
      36       19       24 ar       
      37       19       20 ar       
      38       20       21 ar       
      39       20       46 1        
      40       21       22 ar       
      41       21       47 1        
      42       22       23 ar       
      43       22       25 1        
      44       23       24 ar       
      45       23       48 1        
      46       24       49 1        
      47       25       26 1        
      48       26       27 1        
      49       26       50 1        
      50       26       51 1        
      51       27       28 2        
      52       27       29 am       
      53       29       52 1        
      54       29       53 1        

