#        1GCZ_R01_S0001_C0000_L00003_S0001_C0031_G0010_E0001.mol2
#        Tue Jun  6 09:55:02 2017
#        Descriptor:     34     3     3    15     6    13
#        Energy - RMSD - RMSD MassCentre:     -57.4759    999.9999    999.9999
#        Receptor:       1  Surface Point:     1  Conformer:     0
#        Ligand:         3  Surface Point:     1  Conformer:    31
#        BUDE Formal Charge: 0
#        ATOM Count: 58
#        Heavy ATOM Count: 30
@<TRIPOS>MOLECULE
ZINC61580633_1GCZ_R01_S0001_C0000_L00003_S0001_C0031_G0010_E0001
 58 59 0 0 0
SMALL
USER_CHARGES
@<TRIPOS>ATOM
       1 C1        10.3914   -0.0927    4.4433 C.3       1 <0>        -0.1532 
       2 C2         9.9377    1.2646    3.9136 C.3       1 <0>        -0.1224 
       3 C3        10.1265    2.3231    4.9993 C.3       1 <0>        -0.1198 
       4 C4         9.2789    1.9588    6.2174 C.3       1 <0>         0.0610 
       5 O1         7.8955    1.9719    5.8556 O.3       1 <0>        -0.3878 
       6 C5         7.0509    1.6373    6.9599 C.3       1 <0>         0.0487 
       7 C6         5.5907    1.6685    6.5107 C.3       1 <0>         0.1244 
       8 N1         5.3213    0.5135    5.6423 N.am      1 <0>        -0.7216 
       9 C7         4.1065    0.3358    5.1308 C.2       1 <0>         0.5161 
      10 O2         3.2085    1.1371    5.3838 O.2       1 <0>        -0.5151 
      11 C8         3.8298   -0.8508    4.2387 C.3       1 <0>         0.0490 
      12 O3         3.8593   -2.0493    5.0182 O.3       1 <0>        -0.3194 
      13 C9         2.9413   -2.1903    5.9979 C.2       1 <0>         0.5417 
      14 O4         2.1198   -1.3104    6.1964 O.2       1 <0>        -0.5337 
      15 C10        2.9315   -3.4129    6.8316 C.2       1 <0>        -0.2559 
      16 C11        1.9806   -3.6632    7.9377 C.2       1 <0>        -0.0791 
      17 C12        2.1957   -4.8361    8.5379 C.2       1 <0>        -0.2585 
      18 S1         3.5452   -5.7311    7.8235 S.3       1 <0>         0.3028 
      19 C13        3.8041   -4.4164    6.6671 C.2       1 <0>         0.0893 
      20 N2         4.7796   -4.3847    5.7058 N.am      1 <0>        -0.6099 
      21 C14        5.6239   -5.4046    5.5799 C.2       1 <0>         0.5551 
      22 O5         5.5287   -6.3771    6.3270 O.2       1 <0>        -0.4939 
      23 C15        6.6771   -5.3688    4.5408 C.ar      1 <0>        -0.1466 
      24 C16        7.5461   -6.4624    4.4455 C.ar      1 <0>        -0.0772 
      25 C17        8.6073   -6.4546    3.5325 C.ar      1 <0>        -0.1241 
      26 C18        8.8254   -5.3476    2.7040 C.ar      1 <0>        -0.0446 
      27 C19        7.9269   -4.2755    2.7597 C.ar      1 <0>        -0.1261 
      28 C20        6.8498   -4.2997    3.6537 C.ar      1 <0>        -0.0460 
      29 C21       10.0119   -5.3328    1.7700 C.3       1 <0>        -0.0928 
      30 C22       11.2102   -4.7109    2.4812 C.3       1 <0>        -0.1485 
      31 H1         9.7891   -0.3636    5.3080 H         1 <0>         0.0567 
      32 H2        11.4385   -0.0365    4.7333 H         1 <0>         0.0554 
      33 H3        10.2694   -0.8439    3.6659 H         1 <0>         0.0557 
      34 H4        10.5310    1.5309    3.0413 H         1 <0>         0.0632 
      35 H5         8.8868    1.2137    3.6365 H         1 <0>         0.0635 
      36 H6        11.1748    2.3652    5.2873 H         1 <0>         0.0711 
      37 H7         9.8151    3.2935    4.6186 H         1 <0>         0.0704 
      38 H8         9.5525    0.9653    6.5665 H         1 <0>         0.0498 
      39 H9         9.4525    2.6832    7.0104 H         1 <0>         0.0505 
      40 H10        7.1984    2.3578    7.7617 H         1 <0>         0.0584 
      41 H11        7.2984    0.6401    7.3175 H         1 <0>         0.0702 
      42 H12        5.3994    2.5875    5.9607 H         1 <0>         0.0872 
      43 H13        4.9415    1.6251    7.3827 H         1 <0>         0.0805 
      44 H14        6.0580   -0.1451    5.4338 H         1 <0>         0.4058 
      45 H15        2.8488   -0.7405    3.7814 H         1 <0>         0.1008 
      46 H16        4.5889   -0.9057    3.4614 H         1 <0>         0.0999 
      47 H17        1.1999   -2.9662    8.2042 H         1 <0>         0.1557 
      48 H18        1.5934   -5.1917    9.3607 H         1 <0>         0.1929 
      49 H19        4.8578   -3.5863    5.0923 H         1 <0>         0.4317 
      50 H20        7.4012   -7.3203    5.0852 H         1 <0>         0.1287 
      51 H21        9.2675   -7.3065    3.4636 H         1 <0>         0.1326 
      52 H22        8.0741   -3.4323    2.1011 H         1 <0>         0.1342 
      53 H23        6.1568   -3.4725    3.6104 H         1 <0>         0.1410 
      54 H24        9.7695   -4.7464    0.8862 H         1 <0>         0.0777 
      55 H25       10.2531   -6.3518    1.4749 H         1 <0>         0.0771 
      56 H26       11.4594   -5.3053    3.3578 H         1 <0>         0.0623 
      57 H27       10.9628   -3.6968    2.7883 H         1 <0>         0.0572 
      58 H28       12.0613   -4.6880    1.8038 H         1 <0>         0.0578 
@<TRIPOS>BOND
       1        1        2 1        
       2        1       31 1        
       3        1       32 1        
       4        1       33 1        
       5        2        3 1        
       6        2       34 1        
       7        2       35 1        
       8        3        4 1        
       9        3       36 1        
      10        3       37 1        
      11        4        5 1        
      12        4       38 1        
      13        4       39 1        
      14        5        6 1        
      15        6        7 1        
      16        6       40 1        
      17        6       41 1        
      18        7        8 1        
      19        7       42 1        
      20        7       43 1        
      21        8        9 am       
      22        8       44 1        
      23        9       10 2        
      24        9       11 1        
      25       11       12 1        
      26       11       45 1        
      27       11       46 1        
      28       12       13 1        
      29       13       14 2        
      30       13       15 1        
      31       15       19 2        
      32       15       16 1        
      33       16       17 2        
      34       16       47 1        
      35       17       18 1        
      36       17       48 1        
      37       18       19 1        
      38       19       20 1        
      39       20       21 am       
      40       20       49 1        
      41       21       22 2        
      42       21       23 1        
      43       23       28 ar       
      44       23       24 ar       
      45       24       25 ar       
      46       24       50 1        
      47       25       26 ar       
      48       25       51 1        
      49       26       27 ar       
      50       26       29 1        
      51       27       28 ar       
      52       27       52 1        
      53       28       53 1        
      54       29       30 1        
      55       29       54 1        
      56       29       55 1        
      57       30       56 1        
      58       30       57 1        
      59       30       58 1        

