#        1GCZ_R01_S0001_C0000_L00015_S0001_C0029_G0010_E0001.mol2
#        Tue Jun  6 10:00:28 2017
#        Descriptor:     23     3    35    14     8    13
#        Energy - RMSD - RMSD MassCentre:     -66.2261    999.9999    999.9999
#        Receptor:       1  Surface Point:     1  Conformer:     0
#        Ligand:        15  Surface Point:     1  Conformer:    29
#        BUDE Formal Charge: 0
#        ATOM Count: 53
#        Heavy ATOM Count: 29
@<TRIPOS>MOLECULE
ZINC61646583_1GCZ_R01_S0001_C0000_L00015_S0001_C0029_G0010_E0001
 53 54 0 0 0
SMALL
USER_CHARGES
@<TRIPOS>ATOM
       1 C1        -2.1717    0.0249    4.2741 C.3       1 <0>        -0.1727 
       2 C2        -0.7113    0.3334    4.5021 C.2       1 <0>         0.5094 
       3 O1         0.1533   -0.2960    3.8943 O.2       1 <0>        -0.5291 
       4 N1        -0.3595    1.2861    5.3608 N.am      1 <0>        -0.6649 
       5 C3         1.0090    1.5751    5.5745 C.ar      1 <0>         0.0992 
       6 C4         2.0219    0.8863    4.8919 C.ar      1 <0>        -0.0654 
       7 C5         3.3653    1.1132    5.2141 C.ar      1 <0>        -0.1341 
       8 C6         3.7095    2.1160    6.1284 C.ar      1 <0>         0.1883 
       9 C7         2.6937    2.8183    6.7876 C.ar      1 <0>        -0.2193 
      10 C8         1.3473    2.5836    6.4848 C.ar      1 <0>         0.1218 
      11 O2         0.3189    3.2895    7.0513 O.3       1 <0>        -0.3161 
      12 C9         0.4893    4.6983    7.2270 C.3       1 <0>         0.0284 
      13 N2         5.0728    2.4254    6.3468 N.am      1 <0>        -0.6855 
      14 C10        6.0197    1.7656    5.6858 C.2       1 <0>         0.7035 
      15 O3         5.7050    0.8714    4.8709 O.2       1 <0>        -0.5662 
      16 N3         7.3008    2.0576    5.8921 N.am      1 <0>        -0.7422 
      17 C11        8.3472    1.3283    5.1614 C.3       1 <0>         0.1412 
      18 C12        8.2981   -0.1502    5.5440 C.3       1 <0>        -0.0858 
      19 C13        9.3731   -0.8993    4.7935 C.ar      1 <0>        -0.1209 
      20 C14        9.1077   -1.4554    3.5364 C.ar      1 <0>        -0.0699 
      21 C15       10.1141   -2.1185    2.8240 C.ar      1 <0>        -0.1435 
      22 C16       11.3895   -2.2555    3.3764 C.ar      1 <0>         0.1285 
      23 C17       11.6564   -1.7204    4.6422 C.ar      1 <0>        -0.2085 
      24 C18       10.6522   -1.0428    5.3441 C.ar      1 <0>        -0.0706 
      25 O4        12.3710   -2.9087    2.6788 O.3       1 <0>        -0.2897 
      26 C19       13.2427   -3.7799    3.4041 C.3       1 <0>         0.0392 
      27 C20       12.4332   -4.8834    4.0421 C.2       1 <0>         0.5189 
      28 O5        12.2222   -4.8690    5.2539 O.2       1 <0>        -0.5163 
      29 N4        11.9486   -5.8702    3.2936 N.am      1 <0>        -0.8501 
      30 H1        -2.7819    0.7051    4.8645 H         1 <0>         0.0965 
      31 H2        -2.4073    0.1482    3.2190 H         1 <0>         0.0914 
      32 H3        -2.3764   -1.0005    4.5744 H         1 <0>         0.0912 
      33 H4        -1.0685    1.8033    5.8604 H         1 <0>         0.4136 
      34 H5         1.7875    0.1775    4.1116 H         1 <0>         0.1501 
      35 H6         4.1395    0.5232    4.7463 H         1 <0>         0.1469 
      36 H7         3.0008    3.5616    7.5084 H         1 <0>         0.1349 
      37 H8         0.6415    5.1683    6.2575 H         1 <0>         0.1017 
      38 H9        -0.3992    5.1147    7.6971 H         1 <0>         0.0561 
      39 H10        1.3550    4.8822    7.8598 H         1 <0>         0.0561 
      40 H11        5.3271    3.1479    7.0052 H         1 <0>         0.4065 
      41 H12        7.5539    2.7803    6.5505 H         1 <0>         0.3980 
      42 H13        9.3215    1.7382    5.4194 H         1 <0>         0.0719 
      43 H14        8.1811    1.4323    4.0912 H         1 <0>         0.0706 
      44 H15        7.3232   -0.5586    5.2864 H         1 <0>         0.0792 
      45 H16        8.4636   -0.2528    6.6144 H         1 <0>         0.0805 
      46 H17        8.1240   -1.3789    3.0976 H         1 <0>         0.1321 
      47 H18        9.9114   -2.5340    1.8480 H         1 <0>         0.1348 
      48 H19       12.6412   -1.8301    5.0718 H         1 <0>         0.1285 
      49 H20       10.8837   -0.6349    6.3170 H         1 <0>         0.1266 
      50 H21       13.7587   -3.2144    4.1771 H         1 <0>         0.0957 
      51 H22       13.9720   -4.2123    2.7222 H         1 <0>         0.0953 
      52 H23       12.1223   -5.8810    2.2987 H         1 <0>         0.4036 
      53 H24       11.4069   -6.6081    3.7204 H         1 <0>         0.4104 
@<TRIPOS>BOND
       1        1        2 1        
       2        1       30 1        
       3        1       31 1        
       4        1       32 1        
       5        2        3 2        
       6        2        4 am       
       7        4        5 1        
       8        4       33 1        
       9        5       10 ar       
      10        5        6 ar       
      11        6        7 ar       
      12        6       34 1        
      13        7        8 ar       
      14        7       35 1        
      15        8        9 ar       
      16        8       13 1        
      17        9       10 ar       
      18        9       36 1        
      19       10       11 1        
      20       11       12 1        
      21       12       37 1        
      22       12       38 1        
      23       12       39 1        
      24       13       14 am       
      25       13       40 1        
      26       14       15 2        
      27       14       16 am       
      28       16       17 1        
      29       16       41 1        
      30       17       18 1        
      31       17       42 1        
      32       17       43 1        
      33       18       19 1        
      34       18       44 1        
      35       18       45 1        
      36       19       24 ar       
      37       19       20 ar       
      38       20       21 ar       
      39       20       46 1        
      40       21       22 ar       
      41       21       47 1        
      42       22       23 ar       
      43       22       25 1        
      44       23       24 ar       
      45       23       48 1        
      46       24       49 1        
      47       25       26 1        
      48       26       27 1        
      49       26       50 1        
      50       26       51 1        
      51       27       28 2        
      52       27       29 am       
      53       29       52 1        
      54       29       53 1        

