#        1GCZ_R01_S0001_C0000_L00015_S0001_C0031_G0010_E0001.mol2
#        Tue Jun  6 10:00:30 2017
#        Descriptor:      2    11    31    13     5    12
#        Energy - RMSD - RMSD MassCentre:     -59.7834    999.9999    999.9999
#        Receptor:       1  Surface Point:     1  Conformer:     0
#        Ligand:        15  Surface Point:     1  Conformer:    31
#        BUDE Formal Charge: 0
#        ATOM Count: 53
#        Heavy ATOM Count: 29
@<TRIPOS>MOLECULE
ZINC61646583_1GCZ_R01_S0001_C0000_L00015_S0001_C0031_G0010_E0001
 53 54 0 0 0
SMALL
USER_CHARGES
@<TRIPOS>ATOM
       1 C1        11.2374   -6.9361   -0.7575 C.3       1 <0>        -0.1727 
       2 C2        10.3413   -6.2341    0.2346 C.2       1 <0>         0.5094 
       3 O1        10.5376   -5.0522    0.5130 O.2       1 <0>        -0.5291 
       4 N1         9.3391   -6.8943    0.8079 N.am      1 <0>        -0.6649 
       5 C3         8.4995   -6.2365    1.7376 C.ar      1 <0>         0.0992 
       6 C4         8.6858   -4.8873    2.0714 C.ar      1 <0>        -0.0654 
       7 C5         7.9143   -4.3010    3.0818 C.ar      1 <0>        -0.1341 
       8 C6         6.8707   -5.0201    3.6765 C.ar      1 <0>         0.1883 
       9 C7         6.6730   -6.3594    3.3200 C.ar      1 <0>        -0.2193 
      10 C8         7.4531   -6.9585    2.3241 C.ar      1 <0>         0.1218 
      11 O2         7.2565   -8.2435    1.8914 O.3       1 <0>        -0.3161 
      12 C9         5.9105   -8.6967    1.7256 C.3       1 <0>         0.0284 
      13 N2         6.0147   -4.3754    4.6006 N.am      1 <0>        -0.6855 
      14 C10        6.2031   -3.0935    4.9005 C.2       1 <0>         0.7035 
      15 O3         7.1370   -2.4576    4.3656 O.2       1 <0>        -0.5662 
      16 N3         5.3977   -2.4888    5.7692 N.am      1 <0>        -0.7422 
      17 C11        4.2999   -3.2379    6.3972 C.3       1 <0>         0.1412 
      18 C12        3.5335   -2.3172    7.3457 C.3       1 <0>        -0.0858 
      19 C13        2.9071   -1.1921    6.5570 C.ar      1 <0>        -0.1209 
      20 C14        3.6076    0.0003    6.3391 C.ar      1 <0>        -0.0699 
      21 C15        3.0418    1.0296    5.5769 C.ar      1 <0>        -0.1435 
      22 C16        1.7570    0.8855    5.0491 C.ar      1 <0>         0.1285 
      23 C17        1.0421   -0.2958    5.2808 C.ar      1 <0>        -0.2085 
      24 C18        1.6180   -1.3298    6.0287 C.ar      1 <0>        -0.0706 
      25 O4         1.2041    1.8961    4.3076 O.3       1 <0>        -0.2897 
      26 C19       -0.1805    2.1933    4.5058 C.3       1 <0>         0.0392 
      27 C20       -0.4048    2.6094    5.9400 C.2       1 <0>         0.5189 
      28 O5        -0.9510    1.8368    6.7258 O.2       1 <0>        -0.5163 
      29 N4        -0.0113    3.8111    6.3525 N.am      1 <0>        -0.8501 
      30 H1        10.8869   -7.9556   -0.9037 H         1 <0>         0.0965 
      31 H2        11.2136   -6.4041   -1.7063 H         1 <0>         0.0914 
      32 H3        12.2562   -6.9532   -0.3762 H         1 <0>         0.0912 
      33 H4         9.1771   -7.8647    0.5802 H         1 <0>         0.4136 
      34 H5         9.4182   -4.2811    1.5592 H         1 <0>         0.1501 
      35 H6         8.1148   -3.2869    3.3941 H         1 <0>         0.1469 
      36 H7         5.8779   -6.8880    3.8248 H         1 <0>         0.1349 
      37 H8         5.4093   -8.0790    0.9832 H         1 <0>         0.1017 
      38 H9         5.9156   -9.7325    1.3927 H         1 <0>         0.0561 
      39 H10        5.3841   -8.6229    2.6748 H         1 <0>         0.0561 
      40 H11        5.2601   -4.8892    5.0327 H         1 <0>         0.4065 
      41 H12        5.5407   -1.5153    5.9968 H         1 <0>         0.3980 
      42 H13        4.7078   -4.0774    6.9562 H         1 <0>         0.0719 
      43 H14        3.6264   -3.6074    5.6266 H         1 <0>         0.0706 
      44 H15        4.2192   -1.9058    8.0835 H         1 <0>         0.0792 
      45 H16        2.7545   -2.8847    7.8503 H         1 <0>         0.0805 
      46 H17        4.5946    0.1423    6.7533 H         1 <0>         0.1321 
      47 H18        3.5895    1.9428    5.3975 H         1 <0>         0.1348 
      48 H19        0.0466   -0.4058    4.8768 H         1 <0>         0.1285 
      49 H20        1.0485   -2.2331    6.1901 H         1 <0>         0.1266 
      50 H21       -0.7756    1.3093    4.2868 H         1 <0>         0.0957 
      51 H22       -0.4755    3.0035    3.8422 H         1 <0>         0.0953 
      52 H23        0.4370    4.4447    5.7064 H         1 <0>         0.4036 
      53 H24       -0.1612    4.0893    7.3118 H         1 <0>         0.4104 
@<TRIPOS>BOND
       1        1        2 1        
       2        1       30 1        
       3        1       31 1        
       4        1       32 1        
       5        2        3 2        
       6        2        4 am       
       7        4        5 1        
       8        4       33 1        
       9        5       10 ar       
      10        5        6 ar       
      11        6        7 ar       
      12        6       34 1        
      13        7        8 ar       
      14        7       35 1        
      15        8        9 ar       
      16        8       13 1        
      17        9       10 ar       
      18        9       36 1        
      19       10       11 1        
      20       11       12 1        
      21       12       37 1        
      22       12       38 1        
      23       12       39 1        
      24       13       14 am       
      25       13       40 1        
      26       14       15 2        
      27       14       16 am       
      28       16       17 1        
      29       16       41 1        
      30       17       18 1        
      31       17       42 1        
      32       17       43 1        
      33       18       19 1        
      34       18       44 1        
      35       18       45 1        
      36       19       24 ar       
      37       19       20 ar       
      38       20       21 ar       
      39       20       46 1        
      40       21       22 ar       
      41       21       47 1        
      42       22       23 ar       
      43       22       25 1        
      44       23       24 ar       
      45       23       48 1        
      46       24       49 1        
      47       25       26 1        
      48       26       27 1        
      49       26       50 1        
      50       26       51 1        
      51       27       28 2        
      52       27       29 am       
      53       29       52 1        
      54       29       53 1        

