#        1GCZ_R01_S0001_C0000_L00015_S0001_C0031_G0010_E0001.mol2
#        Tue Jun  6 14:17:15 2017
#        Descriptor:     22     3    34    15    10    13
#        Energy - RMSD - RMSD MassCentre:     -65.9668    999.9999    999.9999
#        Receptor:       1  Surface Point:     1  Conformer:     0
#        Ligand:        15  Surface Point:     1  Conformer:    31
#        BUDE Formal Charge: 0
#        ATOM Count: 53
#        Heavy ATOM Count: 29
@<TRIPOS>MOLECULE
ZINC61646583_1GCZ_R01_S0001_C0000_L00015_S0001_C0031_G0010_E0001
 53 54 0 0 0
SMALL
USER_CHARGES
@<TRIPOS>ATOM
       1 C1        -1.7324    1.1199    4.9452 C.3       1 <0>        -0.1727 
       2 C2        -0.2309    1.0661    5.0959 C.2       1 <0>         0.5094 
       3 O1         0.4084    0.1552    4.5720 O.2       1 <0>        -0.5291 
       4 N1         0.4008    2.0042    5.7957 N.am      1 <0>        -0.6649 
       5 C3         1.8077    1.9538    5.9370 C.ar      1 <0>         0.0992 
       6 C4         2.5708    0.9371    5.3450 C.ar      1 <0>        -0.0654 
       7 C5         3.9439    0.8489    5.6034 C.ar      1 <0>        -0.1341 
       8 C6         4.5842    1.8445    6.3508 C.ar      1 <0>         0.1883 
       9 C7         3.8205    2.8717    6.9176 C.ar      1 <0>        -0.2193 
      10 C8         2.4435    2.9559    6.6797 C.ar      1 <0>         0.1218 
      11 O2         1.6632    3.9769    7.1546 O.3       1 <0>        -0.3161 
      12 C9         2.1966    5.3030    7.1147 C.3       1 <0>         0.0284 
      13 N2         5.9917    1.8156    6.4938 N.am      1 <0>        -0.6855 
      14 C10        6.6996    0.8467    5.9202 C.2       1 <0>         0.7035 
      15 O3         6.1211   -0.0390    5.2542 O.2       1 <0>        -0.5662 
      16 N3         8.0225    0.8209    6.0554 N.am      1 <0>        -0.7422 
      17 C11        8.7011    1.8633    6.8386 C.3       1 <0>         0.1412 
      18 C12       10.2066    1.6022    6.8357 C.3       1 <0>        -0.0858 
      19 C13       10.7306    1.6988    5.4228 C.ar      1 <0>        -0.1209 
      20 C14       10.7682    0.5677    4.5988 C.ar      1 <0>        -0.0699 
      21 C15       11.2196    0.6641    3.2769 C.ar      1 <0>        -0.1435 
      22 C16       11.6645    1.8894    2.7762 C.ar      1 <0>         0.1285 
      23 C17       11.6497    3.0206    3.6012 C.ar      1 <0>        -0.2085 
      24 C18       11.1813    2.9239    4.9169 C.ar      1 <0>        -0.0706 
      25 O4        12.1099    1.9799    1.4838 O.3       1 <0>        -0.2897 
      26 C19       13.2611    2.7881    1.2261 C.3       1 <0>         0.0392 
      27 C20       14.4403    2.2430    1.9960 C.2       1 <0>         0.5189 
      28 O5        14.8448    2.8307    2.9979 O.2       1 <0>        -0.5163 
      29 N4        15.0406    1.1277    1.5902 N.am      1 <0>        -0.8501 
      30 H1        -2.1141    2.0108    5.4393 H         1 <0>         0.0965 
      31 H2        -1.9891    1.1524    3.8884 H         1 <0>         0.0914 
      32 H3        -2.1737    0.2353    5.3991 H         1 <0>         0.0912 
      33 H4        -0.1231    2.7525    6.2264 H         1 <0>         0.4136 
      34 H5         2.1190    0.2123    4.6840 H         1 <0>         0.1501 
      35 H6         4.5141    0.0186    5.2137 H         1 <0>         0.1469 
      36 H7         4.3477    3.6021    7.5133 H         1 <0>         0.1349 
      37 H8         2.4073    5.5776    6.0832 H         1 <0>         0.1017 
      38 H9         1.4721    5.9975    7.5347 H         1 <0>         0.0561 
      39 H10        3.1155    5.3413    7.6959 H         1 <0>         0.0561 
      40 H11        6.4590    2.5312    7.0318 H         1 <0>         0.4065 
      41 H12        8.5600    0.0852    5.6197 H         1 <0>         0.3980 
      42 H13        8.3313    1.8458    7.8617 H         1 <0>         0.0719 
      43 H14        8.5004    2.8369    6.3963 H         1 <0>         0.0706 
      44 H15       10.4021    0.6065    7.2284 H         1 <0>         0.0792 
      45 H16       10.7036    2.3426    7.4589 H         1 <0>         0.0805 
      46 H17       10.4475   -0.3944    4.9699 H         1 <0>         0.1321 
      47 H18       11.2340   -0.2066    2.6382 H         1 <0>         0.1348 
      48 H19       11.9981    3.9674    3.2158 H         1 <0>         0.1285 
      49 H20       11.1755    3.8113    5.5324 H         1 <0>         0.1266 
      50 H21       13.0633    3.8106    1.5406 H         1 <0>         0.0957 
      51 H22       13.4837    2.7719    0.1612 H         1 <0>         0.0953 
      52 H23       14.7077    0.6460    0.7673 H         1 <0>         0.4036 
      53 H24       15.8292    0.7630    2.1052 H         1 <0>         0.4104 
@<TRIPOS>BOND
       1        1        2 1        
       2        1       30 1        
       3        1       31 1        
       4        1       32 1        
       5        2        3 2        
       6        2        4 am       
       7        4        5 1        
       8        4       33 1        
       9        5       10 ar       
      10        5        6 ar       
      11        6        7 ar       
      12        6       34 1        
      13        7        8 ar       
      14        7       35 1        
      15        8        9 ar       
      16        8       13 1        
      17        9       10 ar       
      18        9       36 1        
      19       10       11 1        
      20       11       12 1        
      21       12       37 1        
      22       12       38 1        
      23       12       39 1        
      24       13       14 am       
      25       13       40 1        
      26       14       15 2        
      27       14       16 am       
      28       16       17 1        
      29       16       41 1        
      30       17       18 1        
      31       17       42 1        
      32       17       43 1        
      33       18       19 1        
      34       18       44 1        
      35       18       45 1        
      36       19       24 ar       
      37       19       20 ar       
      38       20       21 ar       
      39       20       46 1        
      40       21       22 ar       
      41       21       47 1        
      42       22       23 ar       
      43       22       25 1        
      44       23       24 ar       
      45       23       48 1        
      46       24       49 1        
      47       25       26 1        
      48       26       27 1        
      49       26       50 1        
      50       26       51 1        
      51       27       28 2        
      52       27       29 am       
      53       29       52 1        
      54       29       53 1        

