#        1GCZ_R01_S0001_C0000_L00015_S0001_C0033_G0010_E0001.mol2
#        Tue Jun  6 14:17:19 2017
#        Descriptor:     23     3    35    15     8    13
#        Energy - RMSD - RMSD MassCentre:     -65.2689    999.9999    999.9999
#        Receptor:       1  Surface Point:     1  Conformer:     0
#        Ligand:        15  Surface Point:     1  Conformer:    33
#        BUDE Formal Charge: 0
#        ATOM Count: 53
#        Heavy ATOM Count: 29
@<TRIPOS>MOLECULE
ZINC61646583_1GCZ_R01_S0001_C0000_L00015_S0001_C0033_G0010_E0001
 53 54 0 0 0
SMALL
USER_CHARGES
@<TRIPOS>ATOM
       1 C1        -1.3512   -0.0236    4.4315 C.3       1 <0>        -0.1727 
       2 C2         0.1092    0.2849    4.6595 C.2       1 <0>         0.5094 
       3 O1         0.9738   -0.3445    4.0518 O.2       1 <0>        -0.5291 
       4 N1         0.4610    1.2376    5.5182 N.am      1 <0>        -0.6649 
       5 C3         1.8295    1.5266    5.7319 C.ar      1 <0>         0.0992 
       6 C4         2.8424    0.8378    5.0493 C.ar      1 <0>        -0.0654 
       7 C5         4.1858    1.0647    5.3715 C.ar      1 <0>        -0.1341 
       8 C6         4.5300    2.0675    6.2858 C.ar      1 <0>         0.1883 
       9 C7         3.5142    2.7698    6.9450 C.ar      1 <0>        -0.2193 
      10 C8         2.1678    2.5351    6.6422 C.ar      1 <0>         0.1218 
      11 O2         1.1394    3.2410    7.2087 O.3       1 <0>        -0.3161 
      12 C9         1.3098    4.6499    7.3844 C.3       1 <0>         0.0284 
      13 N2         5.8933    2.3770    6.5042 N.am      1 <0>        -0.6855 
      14 C10        6.8402    1.7171    5.8432 C.2       1 <0>         0.7035 
      15 O3         6.5255    0.8229    5.0283 O.2       1 <0>        -0.5662 
      16 N3         8.1213    2.0091    6.0495 N.am      1 <0>        -0.7422 
      17 C11        9.1677    1.2799    5.3188 C.3       1 <0>         0.1412 
      18 C12        9.1186   -0.1987    5.7015 C.3       1 <0>        -0.0858 
      19 C13       10.1936   -0.9478    4.9510 C.ar      1 <0>        -0.1209 
      20 C14        9.9281   -1.5039    3.6938 C.ar      1 <0>        -0.0699 
      21 C15       10.9346   -2.1670    2.9814 C.ar      1 <0>        -0.1435 
      22 C16       12.2100   -2.3040    3.5338 C.ar      1 <0>         0.1285 
      23 C17       12.4769   -1.7688    4.7996 C.ar      1 <0>        -0.2085 
      24 C18       11.4727   -1.0912    5.5015 C.ar      1 <0>        -0.0706 
      25 O4        13.1915   -2.9572    2.8362 O.3       1 <0>        -0.2897 
      26 C19       14.0632   -3.8284    3.5615 C.3       1 <0>         0.0392 
      27 C20       15.0637   -4.4426    2.6119 C.2       1 <0>         0.5189 
      28 O5        16.2313   -4.0556    2.6145 O.2       1 <0>        -0.5163 
      29 N4        14.6820   -5.4017    1.7731 N.am      1 <0>        -0.8501 
      30 H1        -1.9614    0.6567    5.0219 H         1 <0>         0.0965 
      31 H2        -1.5868    0.0997    3.3764 H         1 <0>         0.0914 
      32 H3        -1.5559   -1.0490    4.7318 H         1 <0>         0.0912 
      33 H4        -0.2480    1.7549    6.0178 H         1 <0>         0.4136 
      34 H5         2.6080    0.1290    4.2690 H         1 <0>         0.1501 
      35 H6         4.9600    0.4747    4.9037 H         1 <0>         0.1469 
      36 H7         3.8213    3.5131    7.6659 H         1 <0>         0.1349 
      37 H8         1.4619    5.1198    6.4149 H         1 <0>         0.1017 
      38 H9         0.4213    5.0662    7.8545 H         1 <0>         0.0561 
      39 H10        2.1755    4.8337    8.0172 H         1 <0>         0.0561 
      40 H11        6.1476    3.0994    7.1626 H         1 <0>         0.4065 
      41 H12        8.3744    2.7318    6.7080 H         1 <0>         0.3980 
      42 H13       10.1420    1.6897    5.5768 H         1 <0>         0.0719 
      43 H14        9.0016    1.3839    4.2486 H         1 <0>         0.0706 
      44 H15        8.1437   -0.6071    5.4438 H         1 <0>         0.0792 
      45 H16        9.2841   -0.3012    6.7718 H         1 <0>         0.0805 
      46 H17        8.9444   -1.4274    3.2550 H         1 <0>         0.1321 
      47 H18       10.7319   -2.5825    2.0054 H         1 <0>         0.1348 
      48 H19       13.4617   -1.8786    5.2292 H         1 <0>         0.1285 
      49 H20       11.7042   -0.6834    6.4744 H         1 <0>         0.1266 
      50 H21       13.4783   -4.6159    4.0322 H         1 <0>         0.0957 
      51 H22       14.5892   -3.2602    4.3259 H         1 <0>         0.0953 
      52 H23       15.3511   -5.8125    1.1380 H         1 <0>         0.4036 
      53 H24       13.7229   -5.7185    1.7717 H         1 <0>         0.4104 
@<TRIPOS>BOND
       1        1        2 1        
       2        1       30 1        
       3        1       31 1        
       4        1       32 1        
       5        2        3 2        
       6        2        4 am       
       7        4        5 1        
       8        4       33 1        
       9        5       10 ar       
      10        5        6 ar       
      11        6        7 ar       
      12        6       34 1        
      13        7        8 ar       
      14        7       35 1        
      15        8        9 ar       
      16        8       13 1        
      17        9       10 ar       
      18        9       36 1        
      19       10       11 1        
      20       11       12 1        
      21       12       37 1        
      22       12       38 1        
      23       12       39 1        
      24       13       14 am       
      25       13       40 1        
      26       14       15 2        
      27       14       16 am       
      28       16       17 1        
      29       16       41 1        
      30       17       18 1        
      31       17       42 1        
      32       17       43 1        
      33       18       19 1        
      34       18       44 1        
      35       18       45 1        
      36       19       24 ar       
      37       19       20 ar       
      38       20       21 ar       
      39       20       46 1        
      40       21       22 ar       
      41       21       47 1        
      42       22       23 ar       
      43       22       25 1        
      44       23       24 ar       
      45       23       48 1        
      46       24       49 1        
      47       25       26 1        
      48       26       27 1        
      49       26       50 1        
      50       26       51 1        
      51       27       28 2        
      52       27       29 am       
      53       29       52 1        
      54       29       53 1        

