#        1GCZ_R01_S0001_C0000_L00003_S0001_C0031_G0010_E0001.mol2
#        Tue Jun  6 14:04:29 2017
#        Descriptor:     28     8    23    11     4    15
#        Energy - RMSD - RMSD MassCentre:     -53.8770    999.9999    999.9999
#        Receptor:       1  Surface Point:     1  Conformer:     0
#        Ligand:         3  Surface Point:     1  Conformer:    31
#        BUDE Formal Charge: 0
#        ATOM Count: 58
#        Heavy ATOM Count: 30
@<TRIPOS>MOLECULE
ZINC61580633_1GCZ_R01_S0001_C0000_L00003_S0001_C0031_G0010_E0001
 58 59 0 0 0
SMALL
USER_CHARGES
@<TRIPOS>ATOM
       1 C1         0.2835   -3.9327    9.8400 C.3       1 <0>        -0.1532 
       2 C2        -0.5357   -5.1893    9.5597 C.3       1 <0>        -0.1224 
       3 C3        -0.2172   -6.2494   10.6131 C.3       1 <0>        -0.1198 
       4 C4         1.2682   -6.6020   10.5466 C.3       1 <0>         0.0610 
       5 O1         1.5641   -7.1766    9.2710 O.3       1 <0>        -0.3878 
       6 C5         2.9449   -7.5280    9.1503 C.3       1 <0>         0.0487 
       7 C6         3.1965   -8.1345    7.7706 C.3       1 <0>         0.1244 
       8 N1         3.1266   -7.0775    6.7515 N.am      1 <0>        -0.7216 
       9 C7         3.3154   -7.3768    5.4695 C.2       1 <0>         0.5161 
      10 O2         3.5484   -8.5375    5.1360 O.2       1 <0>        -0.5151 
      11 C8         3.2437   -6.2909    4.4226 C.3       1 <0>         0.0490 
      12 O3         4.3721   -5.4232    4.5590 O.3       1 <0>        -0.3194 
      13 C9         5.6009   -5.9470    4.3638 C.2       1 <0>         0.5417 
      14 O4         5.7238   -7.1273    4.0804 O.2       1 <0>        -0.5337 
      15 C10        6.7996   -5.0889    4.4938 C.2       1 <0>        -0.2559 
      16 C11        8.1904   -5.5624    4.3148 C.2       1 <0>        -0.0791 
      17 C12        9.0865   -4.5905    4.5006 C.2       1 <0>        -0.2585 
      18 S1         8.3365   -3.0371    4.8968 S.3       1 <0>         0.3028 
      19 C13        6.7359   -3.7865    4.8023 C.2       1 <0>         0.0893 
      20 N2         5.5448   -3.1464    5.0226 N.am      1 <0>        -0.6099 
      21 C14        5.5309   -1.8517    5.3264 C.2       1 <0>         0.5551 
      22 O5         6.5881   -1.2285    5.4097 O.2       1 <0>        -0.4939 
      23 C15        4.2434   -1.1617    5.5640 C.ar      1 <0>        -0.1466 
      24 C16        4.2753    0.2009    5.8843 C.ar      1 <0>        -0.0772 
      25 C17        3.0966    0.8906    6.1919 C.ar      1 <0>        -0.1241 
      26 C18        1.8639    0.2274    6.1948 C.ar      1 <0>        -0.0446 
      27 C19        1.8225   -1.1217    5.8233 C.ar      1 <0>        -0.1261 
      28 C20        3.0001   -1.8006    5.4880 C.ar      1 <0>        -0.0460 
      29 C21        0.6121    0.9741    6.5897 C.3       1 <0>        -0.0928 
      30 C22        0.3948    0.8410    8.0942 C.3       1 <0>        -0.1485 
      31 H1         1.3435   -4.1728    9.7889 H         1 <0>         0.0567 
      32 H2         0.0434   -3.5580   10.8327 H         1 <0>         0.0554 
      33 H3         0.0468   -3.1732    9.0978 H         1 <0>         0.0557 
      34 H4        -1.5959   -4.9478    9.5982 H         1 <0>         0.0632 
      35 H5        -0.2861   -5.5732    8.5727 H         1 <0>         0.0635 
      36 H6        -0.4532   -5.8616   11.6017 H         1 <0>         0.0711 
      37 H7        -0.8100   -7.1413   10.4216 H         1 <0>         0.0704 
      38 H8         1.8620   -5.7009   10.6843 H         1 <0>         0.0498 
      39 H9         1.5069   -7.3179   11.3303 H         1 <0>         0.0505 
      40 H10        3.2035   -8.2546    9.9177 H         1 <0>         0.0584 
      41 H11        3.5584   -6.6377    9.2717 H         1 <0>         0.0702 
      42 H12        2.4407   -8.8889    7.5621 H         1 <0>         0.0872 
      43 H13        4.1830   -8.5929    7.7497 H         1 <0>         0.0805 
      44 H14        2.9353   -6.1240    7.0242 H         1 <0>         0.4058 
      45 H15        3.2503   -6.7404    3.4319 H         1 <0>         0.1008 
      46 H16        2.3284   -5.7181    4.5556 H         1 <0>         0.0999 
      47 H17        8.4296   -6.5821    4.0514 H         1 <0>         0.1557 
      48 H18       10.1503   -4.7486    4.4025 H         1 <0>         0.1929 
      49 H19        4.6767   -3.6581    4.9542 H         1 <0>         0.4317 
      50 H20        5.2185    0.7266    5.8994 H         1 <0>         0.1287 
      51 H21        3.1328    1.9431    6.4313 H         1 <0>         0.1326 
      52 H22        0.8697   -1.6296    5.7951 H         1 <0>         0.1342 
      53 H23        2.8995   -2.8222    5.1526 H         1 <0>         0.1410 
      54 H24       -0.2414    0.5550    6.0608 H         1 <0>         0.0777 
      55 H25        0.7202    2.0250    6.3297 H         1 <0>         0.0771 
      56 H26        1.2431    1.2717    8.6220 H         1 <0>         0.0623 
      57 H27        0.3010   -0.2112    8.3548 H         1 <0>         0.0572 
      58 H28       -0.5143    1.3677    8.3766 H         1 <0>         0.0578 
@<TRIPOS>BOND
       1        1        2 1        
       2        1       31 1        
       3        1       32 1        
       4        1       33 1        
       5        2        3 1        
       6        2       34 1        
       7        2       35 1        
       8        3        4 1        
       9        3       36 1        
      10        3       37 1        
      11        4        5 1        
      12        4       38 1        
      13        4       39 1        
      14        5        6 1        
      15        6        7 1        
      16        6       40 1        
      17        6       41 1        
      18        7        8 1        
      19        7       42 1        
      20        7       43 1        
      21        8        9 am       
      22        8       44 1        
      23        9       10 2        
      24        9       11 1        
      25       11       12 1        
      26       11       45 1        
      27       11       46 1        
      28       12       13 1        
      29       13       14 2        
      30       13       15 1        
      31       15       19 2        
      32       15       16 1        
      33       16       17 2        
      34       16       47 1        
      35       17       18 1        
      36       17       48 1        
      37       18       19 1        
      38       19       20 1        
      39       20       21 am       
      40       20       49 1        
      41       21       22 2        
      42       21       23 1        
      43       23       28 ar       
      44       23       24 ar       
      45       24       25 ar       
      46       24       50 1        
      47       25       26 ar       
      48       25       51 1        
      49       26       27 ar       
      50       26       29 1        
      51       27       28 ar       
      52       27       52 1        
      53       28       53 1        
      54       29       30 1        
      55       29       54 1        
      56       29       55 1        
      57       30       56 1        
      58       30       57 1        
      59       30       58 1        

