#        1GCZ_R01_S0001_C0000_L00015_S0001_C0035_G0010_E0001.mol2
#        Tue Jun  6 10:00:33 2017
#        Descriptor:      3    20    36     9     9    13
#        Energy - RMSD - RMSD MassCentre:     -68.4493    999.9999    999.9999
#        Receptor:       1  Surface Point:     1  Conformer:     0
#        Ligand:        15  Surface Point:     1  Conformer:    35
#        BUDE Formal Charge: 0
#        ATOM Count: 53
#        Heavy ATOM Count: 29
@<TRIPOS>MOLECULE
ZINC61646583_1GCZ_R01_S0001_C0000_L00015_S0001_C0035_G0010_E0001
 53 54 0 0 0
SMALL
USER_CHARGES
@<TRIPOS>ATOM
       1 C1         5.6835    4.0705   11.6562 C.3       1 <0>        -0.1727 
       2 C2         4.6738    3.7160   10.5909 C.2       1 <0>         0.5094 
       3 O1         4.4461    4.5017    9.6723 O.2       1 <0>        -0.5291 
       4 N1         4.0300    2.5535   10.6460 N.am      1 <0>        -0.6649 
       5 C3         3.0838    2.2214    9.6479 C.ar      1 <0>         0.0992 
       6 C4         2.8061    3.0867    8.5799 C.ar      1 <0>        -0.0654 
       7 C5         1.7802    2.7816    7.6775 C.ar      1 <0>        -0.1341 
       8 C6         1.1110    1.5549    7.7622 C.ar      1 <0>         0.1883 
       9 C7         1.4111    0.6835    8.8159 C.ar      1 <0>        -0.2193 
      10 C8         2.4226    0.9903    9.7336 C.ar      1 <0>         0.1218 
      11 O2         2.8007    0.1429   10.7415 O.3       1 <0>        -0.3161 
      12 C9         2.8852   -1.2539   10.4471 C.3       1 <0>         0.0284 
      13 N2         0.1692    1.2017    6.7670 N.am      1 <0>        -0.6855 
      14 C10       -0.0769    2.0327    5.7581 C.2       1 <0>         0.7035 
      15 O3         0.5244    3.1264    5.6890 O.2       1 <0>        -0.5662 
      16 N3        -0.9624    1.6994    4.8233 N.am      1 <0>        -0.7422 
      17 C11       -1.6685    0.4128    4.9060 C.3       1 <0>         0.1412 
      18 C12       -2.6209    0.2783    3.7188 C.3       1 <0>        -0.0858 
      19 C13       -1.8253    0.2648    2.4354 C.ar      1 <0>        -0.1209 
      20 C14       -1.5326    1.4595    1.7669 C.ar      1 <0>        -0.0699 
      21 C15       -0.7639    1.4510    0.5966 C.ar      1 <0>        -0.1435 
      22 C16       -0.3045    0.2424    0.0691 C.ar      1 <0>         0.1285 
      23 C17       -0.6112   -0.9583    0.7207 C.ar      1 <0>        -0.2085 
      24 C18       -1.3654   -0.9443    1.9001 C.ar      1 <0>        -0.0706 
      25 O4         0.4436    0.2367   -1.0786 O.3       1 <0>        -0.2897 
      26 C19        0.1886   -0.7903   -2.0404 C.3       1 <0>         0.0392 
      27 C20        1.1143   -0.6146   -3.2204 C.2       1 <0>         0.5189 
      28 O5         2.0692   -1.3752   -3.3710 O.2       1 <0>        -0.5163 
      29 N4         0.8965    0.3625   -4.0962 N.am      1 <0>        -0.8501 
      30 H1         5.7774    3.2427   12.3559 H         1 <0>         0.0965 
      31 H2         6.6478    4.2640   11.1908 H         1 <0>         0.0914 
      32 H3         5.3519    4.9599   12.1878 H         1 <0>         0.0912 
      33 H4         4.2161    1.9078   11.3999 H         1 <0>         0.4136 
      34 H5         3.3739    3.9937    8.4336 H         1 <0>         0.1501 
      35 H6         1.5131    3.4877    6.9053 H         1 <0>         0.1469 
      36 H7         0.8504   -0.2383    8.8636 H         1 <0>         0.1349 
      37 H8         3.6231   -1.4148    9.6639 H         1 <0>         0.1017 
      38 H9         3.1820   -1.7954   11.3428 H         1 <0>         0.0561 
      39 H10        1.9145   -1.6123   10.1109 H         1 <0>         0.0561 
      40 H11       -0.3166    0.3180    6.8228 H         1 <0>         0.4065 
      41 H12       -1.1491    2.3304    4.0572 H         1 <0>         0.3980 
      42 H13       -2.2356    0.3700    5.8335 H         1 <0>         0.0719 
      43 H14       -0.9447   -0.3994    4.8849 H         1 <0>         0.0706 
      44 H15       -3.3099    1.1204    3.7103 H         1 <0>         0.0792 
      45 H16       -3.1821   -0.6494    3.8081 H         1 <0>         0.0805 
      46 H17       -1.8933    2.4044    2.1452 H         1 <0>         0.1321 
      47 H18       -0.5267    2.3750    0.0904 H         1 <0>         0.1348 
      48 H19       -0.2602   -1.8936    0.3104 H         1 <0>         0.1285 
      49 H20       -1.5853   -1.8829    2.3868 H         1 <0>         0.1266 
      50 H21       -0.8442   -0.7237   -2.3759 H         1 <0>         0.0957 
      51 H22        0.3608   -1.7634   -1.5853 H         1 <0>         0.0953 
      52 H23        1.5157    0.4799   -4.8854 H         1 <0>         0.4036 
      53 H24        0.1123    0.9864   -3.9714 H         1 <0>         0.4104 
@<TRIPOS>BOND
       1        1        2 1        
       2        1       30 1        
       3        1       31 1        
       4        1       32 1        
       5        2        3 2        
       6        2        4 am       
       7        4        5 1        
       8        4       33 1        
       9        5       10 ar       
      10        5        6 ar       
      11        6        7 ar       
      12        6       34 1        
      13        7        8 ar       
      14        7       35 1        
      15        8        9 ar       
      16        8       13 1        
      17        9       10 ar       
      18        9       36 1        
      19       10       11 1        
      20       11       12 1        
      21       12       37 1        
      22       12       38 1        
      23       12       39 1        
      24       13       14 am       
      25       13       40 1        
      26       14       15 2        
      27       14       16 am       
      28       16       17 1        
      29       16       41 1        
      30       17       18 1        
      31       17       42 1        
      32       17       43 1        
      33       18       19 1        
      34       18       44 1        
      35       18       45 1        
      36       19       24 ar       
      37       19       20 ar       
      38       20       21 ar       
      39       20       46 1        
      40       21       22 ar       
      41       21       47 1        
      42       22       23 ar       
      43       22       25 1        
      44       23       24 ar       
      45       23       48 1        
      46       24       49 1        
      47       25       26 1        
      48       26       27 1        
      49       26       50 1        
      50       26       51 1        
      51       27       28 2        
      52       27       29 am       
      53       29       52 1        
      54       29       53 1        

