#        1GCZ_R01_S0001_C0000_L00015_S0001_C0036_G0010_E0001.mol2
#        Tue Jun  6 14:17:25 2017
#        Descriptor:      3    18     5     9    11    13
#        Energy - RMSD - RMSD MassCentre:     -58.1017    999.9999    999.9999
#        Receptor:       1  Surface Point:     1  Conformer:     0
#        Ligand:        15  Surface Point:     1  Conformer:    36
#        BUDE Formal Charge: 0
#        ATOM Count: 53
#        Heavy ATOM Count: 29
@<TRIPOS>MOLECULE
ZINC61646583_1GCZ_R01_S0001_C0000_L00015_S0001_C0036_G0010_E0001
 53 54 0 0 0
SMALL
USER_CHARGES
@<TRIPOS>ATOM
       1 C1         2.9401   10.0890    9.6529 C.3       1 <0>        -0.1727 
       2 C2         2.3676    8.8552    8.9972 C.2       1 <0>         0.5094 
       3 O1         1.4263    8.9557    8.2119 O.2       1 <0>        -0.5291 
       4 N1         2.8814    7.6590    9.2692 N.am      1 <0>        -0.6649 
       5 C3         2.3449    6.5029    8.6549 C.ar      1 <0>         0.0992 
       6 C4         1.2795    6.5794    7.7463 C.ar      1 <0>        -0.0654 
       7 C5         0.6951    5.4083    7.2492 C.ar      1 <0>        -0.1341 
       8 C6         1.2492    4.1602    7.5576 C.ar      1 <0>         0.1883 
       9 C7         2.3297    4.0922    8.4451 C.ar      1 <0>        -0.2193 
      10 C8         2.9074    5.2580    8.9616 C.ar      1 <0>         0.1218 
      11 O2         4.0065    5.2495    9.7794 O.3       1 <0>        -0.3161 
      12 C9         5.0628    4.3354    9.4738 C.3       1 <0>         0.0284 
      13 N2         0.7321    2.9945    6.9446 N.am      1 <0>        -0.6855 
      14 C10       -0.2749    3.0872    6.0807 C.2       1 <0>         0.7035 
      15 O3        -0.7648    4.2050    5.8101 O.2       1 <0>        -0.5662 
      16 N3        -0.7600    1.9906    5.5052 N.am      1 <0>        -0.7422 
      17 C11       -0.1827    0.6770    5.8243 C.3       1 <0>         0.1412 
      18 C12       -0.9159   -0.4060    5.0344 C.3       1 <0>        -0.0858 
      19 C13       -0.7072   -0.1783    3.5564 C.ar      1 <0>        -0.1209 
      20 C14       -1.5926    0.6252    2.8281 C.ar      1 <0>        -0.0699 
      21 C15       -1.3790    0.8664    1.4655 C.ar      1 <0>        -0.1435 
      22 C16       -0.2916    0.2821    0.8126 C.ar      1 <0>         0.1285 
      23 C17        0.5861   -0.5398    1.5298 C.ar      1 <0>        -0.2085 
      24 C18        0.3791   -0.7647    2.8961 C.ar      1 <0>        -0.0706 
      25 O4        -0.0877    0.5163   -0.5217 O.3       1 <0>        -0.2897 
      26 C19        0.3336   -0.5795   -1.3383 C.3       1 <0>         0.0392 
      27 C20        0.4987   -0.1093   -2.7638 C.2       1 <0>         0.5189 
      28 O5         1.6250    0.0497   -3.2318 O.2       1 <0>        -0.5163 
      29 N4        -0.5739    0.1325   -3.5123 N.am      1 <0>        -0.8501 
      30 H1         3.7848    9.8078   10.2783 H         1 <0>         0.0965 
      31 H2         3.2721   10.7856    8.8858 H         1 <0>         0.0914 
      32 H3         2.1754   10.5613   10.2659 H         1 <0>         0.0912 
      33 H4         3.6542    7.5754    9.9139 H         1 <0>         0.4136 
      34 H5         0.8955    7.5327    7.4146 H         1 <0>         0.1501 
      35 H6        -0.1769    5.4676    6.6149 H         1 <0>         0.1469 
      36 H7         2.7076    3.1086    8.6817 H         1 <0>         0.1349 
      37 H8         5.4596    4.5580    8.4855 H         1 <0>         0.1017 
      38 H9         5.8539    4.4357   10.2140 H         1 <0>         0.0561 
      39 H10        4.6772    3.3182    9.4899 H         1 <0>         0.0561 
      40 H11        1.1279    2.0914    7.1632 H         1 <0>         0.4065 
      41 H12       -1.5245    2.0611    4.8491 H         1 <0>         0.3980 
      42 H13       -0.2886    0.4843    6.8899 H         1 <0>         0.0719 
      43 H14        0.8720    0.6704    5.5570 H         1 <0>         0.0706 
      44 H15       -1.9790   -0.3630    5.2621 H         1 <0>         0.0792 
      45 H16       -0.5246   -1.3829    5.3104 H         1 <0>         0.0805 
      46 H17       -2.4511    1.0721    3.3070 H         1 <0>         0.1321 
      47 H18       -2.0548    1.4985    0.9087 H         1 <0>         0.1348 
      48 H19        1.4244   -0.9957    1.0242 H         1 <0>         0.1285 
      49 H20        1.0723   -1.3988    3.4286 H         1 <0>         0.1266 
      50 H21       -0.4151   -1.3680   -1.3003 H         1 <0>         0.0957 
      51 H22        1.2830   -0.9618   -0.9696 H         1 <0>         0.0953 
      52 H23       -1.4982    0.0015   -3.1269 H         1 <0>         0.4036 
      53 H24       -0.4634    0.4468   -4.4657 H         1 <0>         0.4104 
@<TRIPOS>BOND
       1        1        2 1        
       2        1       30 1        
       3        1       31 1        
       4        1       32 1        
       5        2        3 2        
       6        2        4 am       
       7        4        5 1        
       8        4       33 1        
       9        5       10 ar       
      10        5        6 ar       
      11        6        7 ar       
      12        6       34 1        
      13        7        8 ar       
      14        7       35 1        
      15        8        9 ar       
      16        8       13 1        
      17        9       10 ar       
      18        9       36 1        
      19       10       11 1        
      20       11       12 1        
      21       12       37 1        
      22       12       38 1        
      23       12       39 1        
      24       13       14 am       
      25       13       40 1        
      26       14       15 2        
      27       14       16 am       
      28       16       17 1        
      29       16       41 1        
      30       17       18 1        
      31       17       42 1        
      32       17       43 1        
      33       18       19 1        
      34       18       44 1        
      35       18       45 1        
      36       19       24 ar       
      37       19       20 ar       
      38       20       21 ar       
      39       20       46 1        
      40       21       22 ar       
      41       21       47 1        
      42       22       23 ar       
      43       22       25 1        
      44       23       24 ar       
      45       23       48 1        
      46       24       49 1        
      47       25       26 1        
      48       26       27 1        
      49       26       50 1        
      50       26       51 1        
      51       27       28 2        
      52       27       29 am       
      53       29       52 1        
      54       29       53 1        

