#        1GCZ_R01_S0001_C0000_L00015_S0001_C0037_G0010_E0001.mol2
#        Tue Jun  6 14:17:27 2017
#        Descriptor:      5    35     3    12     8    15
#        Energy - RMSD - RMSD MassCentre:     -56.4426    999.9999    999.9999
#        Receptor:       1  Surface Point:     1  Conformer:     0
#        Ligand:        15  Surface Point:     1  Conformer:    37
#        BUDE Formal Charge: 0
#        ATOM Count: 53
#        Heavy ATOM Count: 29
@<TRIPOS>MOLECULE
ZINC61646583_1GCZ_R01_S0001_C0000_L00015_S0001_C0037_G0010_E0001
 53 54 0 0 0
SMALL
USER_CHARGES
@<TRIPOS>ATOM
       1 C1        -3.0974   -0.4146    2.9141 C.3       1 <0>        -0.1727 
       2 C2        -1.6162   -0.2502    3.1576 C.2       1 <0>         0.5094 
       3 O1        -0.8062   -0.8564    2.4583 O.2       1 <0>        -0.5291 
       4 N1        -1.1873    0.5505    4.1291 N.am      1 <0>        -0.6649 
       5 C3         0.2006    0.7044    4.3573 C.ar      1 <0>         0.0992 
       6 C4         1.1536    0.0382    3.5734 C.ar      1 <0>        -0.0654 
       7 C5         2.5122    0.1181    3.9013 C.ar      1 <0>        -0.1341 
       8 C6         2.9379    0.9615    4.9344 C.ar      1 <0>         0.1883 
       9 C7         1.9830    1.6445    5.6970 C.ar      1 <0>        -0.2193 
      10 C8         0.6208    1.5544    5.3873 C.ar      1 <0>         0.1218 
      11 O2        -0.3470    2.2542    6.0584 O.3       1 <0>        -0.3161 
      12 C9        -0.2271    2.3707    7.4787 C.3       1 <0>         0.0284 
      13 N2         4.3223    1.1354    5.1701 N.am      1 <0>        -0.6855 
      14 C10        4.7359    1.9348    6.1493 C.2       1 <0>         0.7035 
      15 O3         3.9010    2.5326    6.8621 O.2       1 <0>        -0.5662 
      16 N3         6.0374    2.0972    6.3696 N.am      1 <0>        -0.7422 
      17 C11        7.0178    1.3933    5.5306 C.3       1 <0>         0.1412 
      18 C12        6.8554   -0.1148    5.7153 C.3       1 <0>        -0.0858 
      19 C13        7.1563   -0.4807    7.1491 C.ar      1 <0>        -0.1209 
      20 C14        8.4596   -0.8079    7.5417 C.ar      1 <0>        -0.0699 
      21 C15        8.7460   -1.1116    8.8781 C.ar      1 <0>        -0.1435 
      22 C16        7.7238   -1.1179    9.8296 C.ar      1 <0>         0.1285 
      23 C17        6.4142   -0.8123    9.4403 C.ar      1 <0>        -0.2085 
      24 C18        6.1347   -0.4921    8.1064 C.ar      1 <0>        -0.0706 
      25 O4         8.0062   -1.4198   11.1357 O.3       1 <0>        -0.2897 
      26 C19        7.0795   -2.2425   11.8494 C.3       1 <0>         0.0392 
      27 C20        7.5762   -2.4517   13.2599 C.2       1 <0>         0.5189 
      28 O5         7.0371   -1.8624   14.1952 O.2       1 <0>        -0.5163 
      29 N4         8.5966   -3.2735   13.4900 N.am      1 <0>        -0.8501 
      30 H1        -3.6500    0.2252    3.5990 H         1 <0>         0.0965 
      31 H2        -3.3289   -0.1344    1.8885 H         1 <0>         0.0914 
      32 H3        -3.3786   -1.4523    3.0795 H         1 <0>         0.0912 
      33 H4        -1.8515    1.0487    4.7040 H         1 <0>         0.4136 
      34 H5         0.8608   -0.5409    2.7100 H         1 <0>         0.1501 
      35 H6         3.2361   -0.4610    3.3472 H         1 <0>         0.1469 
      36 H7         2.3506    2.2600    6.5047 H         1 <0>         0.1349 
      37 H8         0.7003    2.8845    7.7229 H         1 <0>         0.1017 
      38 H9        -1.0702    2.9378    7.8678 H         1 <0>         0.0561 
      39 H10       -0.2207    1.3781    7.9241 H         1 <0>         0.0561 
      40 H11        4.9968    0.6523    4.5941 H         1 <0>         0.4065 
      41 H12        6.3515    2.7041    7.1134 H         1 <0>         0.3980 
      42 H13        8.0232    1.6889    5.8231 H         1 <0>         0.0719 
      43 H14        6.8526    1.6513    4.4867 H         1 <0>         0.0706 
      44 H15        7.5446   -0.6368    5.0549 H         1 <0>         0.0792 
      45 H16        5.8338   -0.4011    5.4740 H         1 <0>         0.0805 
      46 H17        9.2629   -0.8285    6.8200 H         1 <0>         0.1321 
      47 H18        9.7548   -1.3495    9.1817 H         1 <0>         0.1348 
      48 H19        5.6226   -0.8216   10.1749 H         1 <0>         0.1285 
      49 H20        5.1175   -0.2556    7.8314 H         1 <0>         0.1266 
      50 H21        6.9896   -3.2045   11.3494 H         1 <0>         0.0957 
      51 H22        6.1075   -1.7543   11.8753 H         1 <0>         0.0953 
      52 H23        8.9289   -3.4135   14.4333 H         1 <0>         0.4036 
      53 H24        9.0386   -3.7568   12.7212 H         1 <0>         0.4104 
@<TRIPOS>BOND
       1        1        2 1        
       2        1       30 1        
       3        1       31 1        
       4        1       32 1        
       5        2        3 2        
       6        2        4 am       
       7        4        5 1        
       8        4       33 1        
       9        5       10 ar       
      10        5        6 ar       
      11        6        7 ar       
      12        6       34 1        
      13        7        8 ar       
      14        7       35 1        
      15        8        9 ar       
      16        8       13 1        
      17        9       10 ar       
      18        9       36 1        
      19       10       11 1        
      20       11       12 1        
      21       12       37 1        
      22       12       38 1        
      23       12       39 1        
      24       13       14 am       
      25       13       40 1        
      26       14       15 2        
      27       14       16 am       
      28       16       17 1        
      29       16       41 1        
      30       17       18 1        
      31       17       42 1        
      32       17       43 1        
      33       18       19 1        
      34       18       44 1        
      35       18       45 1        
      36       19       24 ar       
      37       19       20 ar       
      38       20       21 ar       
      39       20       46 1        
      40       21       22 ar       
      41       21       47 1        
      42       22       23 ar       
      43       22       25 1        
      44       23       24 ar       
      45       23       48 1        
      46       24       49 1        
      47       25       26 1        
      48       26       27 1        
      49       26       50 1        
      50       26       51 1        
      51       27       28 2        
      52       27       29 am       
      53       29       52 1        
      54       29       53 1        

