#        1GCZ_R01_S0001_C0000_L00015_S0001_C0038_G0010_E0001.mol2
#        Tue Jun  6 10:00:36 2017
#        Descriptor:     10    15    25    14     5    12
#        Energy - RMSD - RMSD MassCentre:     -55.6466    999.9999    999.9999
#        Receptor:       1  Surface Point:     1  Conformer:     0
#        Ligand:        15  Surface Point:     1  Conformer:    38
#        BUDE Formal Charge: 0
#        ATOM Count: 53
#        Heavy ATOM Count: 29
@<TRIPOS>MOLECULE
ZINC61646583_1GCZ_R01_S0001_C0000_L00015_S0001_C0038_G0010_E0001
 53 54 0 0 0
SMALL
USER_CHARGES
@<TRIPOS>ATOM
       1 C1         9.8284   -9.9597    1.9641 C.3       1 <0>        -0.1727 
       2 C2         9.4835   -8.7151    2.7465 C.2       1 <0>         0.5094 
       3 O1         9.3299   -8.7767    3.9653 O.2       1 <0>        -0.5291 
       4 N1         9.3454   -7.5516    2.1173 N.am      1 <0>        -0.6649 
       5 C3         9.0221   -6.3854    2.8505 C.ar      1 <0>         0.0992 
       6 C4         8.8504   -6.4149    4.2419 C.ar      1 <0>        -0.0654 
       7 C5         8.4142   -5.2704    4.9199 C.ar      1 <0>        -0.1341 
       8 C6         8.2677   -4.0593    4.2333 C.ar      1 <0>         0.1883 
       9 C7         8.4660   -4.0304    2.8477 C.ar      1 <0>        -0.2193 
      10 C8         8.8837   -5.1757    2.1596 C.ar      1 <0>         0.1218 
      11 O2         9.1565   -5.1841    0.8171 O.3       1 <0>        -0.3161 
      12 C9         8.2905   -4.4445   -0.0478 C.3       1 <0>         0.0284 
      13 N2         7.9549   -2.8811    4.9518 N.am      1 <0>        -0.6855 
      14 C10        7.8140   -1.7260    4.3078 C.2       1 <0>         0.7035 
      15 O3         7.9578   -1.6811    3.0668 O.2       1 <0>        -0.5662 
      16 N3         7.5199   -0.6193    4.9844 N.am      1 <0>        -0.7422 
      17 C11        7.3509   -0.6738    6.4436 C.3       1 <0>         0.1412 
      18 C12        6.1640   -1.5736    6.7848 C.3       1 <0>        -0.0858 
      19 C13        4.9000   -0.9754    6.2151 C.ar      1 <0>        -0.1209 
      20 C14        4.1360   -0.0758    6.9680 C.ar      1 <0>        -0.0699 
      21 C15        2.9838    0.5072    6.4269 C.ar      1 <0>        -0.1435 
      22 C16        2.5700    0.1731    5.1356 C.ar      1 <0>         0.1285 
      23 C17        3.3173   -0.7420    4.3844 C.ar      1 <0>        -0.2085 
      24 C18        4.4785   -1.3096    4.9225 C.ar      1 <0>        -0.0706 
      25 O4         1.4397    0.7418    4.6104 O.3       1 <0>        -0.2897 
      26 C19        0.5657   -0.0893    3.8420 C.3       1 <0>         0.0392 
      27 C20       -0.6093    0.7275    3.3602 C.2       1 <0>         0.5189 
      28 O5        -0.6780    1.0692    2.1806 O.2       1 <0>        -0.5163 
      29 N4        -1.5696    1.0768    4.2117 N.am      1 <0>        -0.8501 
      30 H1         9.9627   -9.7025    0.9155 H         1 <0>         0.0965 
      31 H2        10.7494  -10.3886    2.3538 H         1 <0>         0.0914 
      32 H3         9.0216  -10.6831    2.0604 H         1 <0>         0.0912 
      33 H4         9.4712   -7.4998    1.1166 H         1 <0>         0.4136 
      34 H5         9.0516   -7.3107    4.8109 H         1 <0>         0.1501 
      35 H6         8.2035   -5.3175    5.9781 H         1 <0>         0.1469 
      36 H7         8.3123   -3.0839    2.3509 H         1 <0>         0.1349 
      37 H8         8.3145   -3.3926    0.2290 H         1 <0>         0.1017 
      38 H9         8.6247   -4.5571   -1.0771 H         1 <0>         0.0561 
      39 H10        7.2747   -4.8223    0.0475 H         1 <0>         0.0561 
      40 H11        7.8387   -2.9173    5.9543 H         1 <0>         0.4065 
      41 H12        7.4127    0.2578    4.4954 H         1 <0>         0.3980 
      42 H13        7.1681    0.3288    6.8245 H         1 <0>         0.0719 
      43 H14        8.2541   -1.0760    6.8979 H         1 <0>         0.0706 
      44 H15        6.0715   -1.6566    7.8656 H         1 <0>         0.0792 
      45 H16        6.3236   -2.5611    6.3569 H         1 <0>         0.0805 
      46 H17        4.4256    0.1829    7.9758 H         1 <0>         0.1321 
      47 H18        2.4039    1.2122    7.0040 H         1 <0>         0.1348 
      48 H19        2.9950   -1.0041    3.3876 H         1 <0>         0.1285 
      49 H20        5.0406   -2.0095    4.3220 H         1 <0>         0.1266 
      50 H21        0.2086   -0.9094    4.4613 H         1 <0>         0.0957 
      51 H22        1.1058   -0.4888    2.9861 H         1 <0>         0.0953 
      52 H23       -1.5122    0.7956    5.1801 H         1 <0>         0.4036 
      53 H24       -2.3557    1.6229    3.8894 H         1 <0>         0.4104 
@<TRIPOS>BOND
       1        1        2 1        
       2        1       30 1        
       3        1       31 1        
       4        1       32 1        
       5        2        3 2        
       6        2        4 am       
       7        4        5 1        
       8        4       33 1        
       9        5       10 ar       
      10        5        6 ar       
      11        6        7 ar       
      12        6       34 1        
      13        7        8 ar       
      14        7       35 1        
      15        8        9 ar       
      16        8       13 1        
      17        9       10 ar       
      18        9       36 1        
      19       10       11 1        
      20       11       12 1        
      21       12       37 1        
      22       12       38 1        
      23       12       39 1        
      24       13       14 am       
      25       13       40 1        
      26       14       15 2        
      27       14       16 am       
      28       16       17 1        
      29       16       41 1        
      30       17       18 1        
      31       17       42 1        
      32       17       43 1        
      33       18       19 1        
      34       18       44 1        
      35       18       45 1        
      36       19       24 ar       
      37       19       20 ar       
      38       20       21 ar       
      39       20       46 1        
      40       21       22 ar       
      41       21       47 1        
      42       22       23 ar       
      43       22       25 1        
      44       23       24 ar       
      45       23       48 1        
      46       24       49 1        
      47       25       26 1        
      48       26       27 1        
      49       26       50 1        
      50       26       51 1        
      51       27       28 2        
      52       27       29 am       
      53       29       52 1        
      54       29       53 1        

