#        1GCZ_R01_S0001_C0000_L00015_S0001_C0039_G0010_E0001.mol2
#        Tue Jun  6 10:00:37 2017
#        Descriptor:      5    36     3    13     8    13
#        Energy - RMSD - RMSD MassCentre:     -66.8931    999.9999    999.9999
#        Receptor:       1  Surface Point:     1  Conformer:     0
#        Ligand:        15  Surface Point:     1  Conformer:    39
#        BUDE Formal Charge: 0
#        ATOM Count: 53
#        Heavy ATOM Count: 29
@<TRIPOS>MOLECULE
ZINC61646583_1GCZ_R01_S0001_C0000_L00015_S0001_C0039_G0010_E0001
 53 54 0 0 0
SMALL
USER_CHARGES
@<TRIPOS>ATOM
       1 C1        -2.5616    0.1365    2.2955 C.3       1 <0>        -0.1727 
       2 C2        -1.1350    0.2693    2.7724 C.2       1 <0>         0.5094 
       3 O1        -0.2250   -0.2792    2.1528 O.2       1 <0>        -0.5291 
       4 N1        -0.8623    0.9798    3.8631 N.am      1 <0>        -0.6649 
       5 C3         0.4745    1.1042    4.3099 C.ar      1 <0>         0.0992 
       6 C4         1.5388    0.5023    3.6234 C.ar      1 <0>        -0.0654 
       7 C5         2.8322    0.5446    4.1575 C.ar      1 <0>        -0.1341 
       8 C6         3.0921    1.2922    5.3123 C.ar      1 <0>         0.1883 
       9 C7         2.0289    1.9127    5.9789 C.ar      1 <0>        -0.2193 
      10 C8         0.7294    1.8588    5.4612 C.ar      1 <0>         0.1218 
      11 O2        -0.3329    2.5041    6.0374 O.3       1 <0>        -0.3161 
      12 C9        -0.1195    3.8221    6.5495 C.3       1 <0>         0.0284 
      13 N2         4.4241    1.4359    5.7676 N.am      1 <0>        -0.6855 
      14 C10        4.6805    2.1445    6.8635 C.2       1 <0>         0.7035 
      15 O3         3.7440    2.6837    7.4919 O.2       1 <0>        -0.5662 
      16 N3         5.9330    2.2786    7.2904 N.am      1 <0>        -0.7422 
      17 C11        7.0330    1.6437    6.5504 C.3       1 <0>         0.1412 
      18 C12        6.8546    0.1264    6.5769 C.3       1 <0>        -0.0858 
      19 C13        7.9846   -0.5258    5.8168 C.ar      1 <0>        -0.1209 
      20 C14        7.8706   -0.7699    4.4429 C.ar      1 <0>        -0.0699 
      21 C15        8.9320   -1.3411    3.7306 C.ar      1 <0>        -0.1435 
      22 C16       10.1080   -1.6993    4.3930 C.ar      1 <0>         0.1285 
      23 C17       10.2212   -1.4777    5.7708 C.ar      1 <0>        -0.2085 
      24 C18        9.1643   -0.8903    6.4766 C.ar      1 <0>        -0.0706 
      25 O4        11.1432   -2.2621    3.6943 O.3       1 <0>        -0.2897 
      26 C19       11.8580   -3.3393    4.3057 C.3       1 <0>         0.0392 
      27 C20       10.9110   -4.4855    4.5687 C.2       1 <0>         0.5189 
      28 O5        10.5325   -4.7193    5.7155 O.2       1 <0>        -0.5163 
      29 N4        10.4865   -5.2417    3.5602 N.am      1 <0>        -0.8501 
      30 H1        -3.2151    0.7180    2.9424 H         1 <0>         0.0965 
      31 H2        -2.6381    0.5061    1.2750 H         1 <0>         0.0914 
      32 H3        -2.8576   -0.9099    2.3260 H         1 <0>         0.0912 
      33 H4        -1.6087    1.4306    4.3727 H         1 <0>         0.4136 
      34 H5         1.3830    0.0024    2.6788 H         1 <0>         0.1501 
      35 H6         3.6350    0.0109    3.6705 H         1 <0>         0.1469 
      36 H7         2.2668    2.4533    6.8831 H         1 <0>         0.1349 
      37 H8         0.1923    4.4788    5.7400 H         1 <0>         0.1017 
      38 H9        -1.0441    4.1955    6.9846 H         1 <0>         0.0561 
      39 H10        0.6553    3.7929    7.3127 H         1 <0>         0.0561 
      40 H11        5.1807    1.0002    5.2599 H         1 <0>         0.4065 
      41 H12        6.1276    2.8165    8.1227 H         1 <0>         0.3980 
      42 H13        7.9810    1.9062    7.0153 H         1 <0>         0.0719 
      43 H14        7.0249    1.9925    5.5199 H         1 <0>         0.0706 
      44 H15        5.9059   -0.1347    6.1125 H         1 <0>         0.0792 
      45 H16        6.8620   -0.2210    7.6079 H         1 <0>         0.0805 
      46 H17        6.9638   -0.5191    3.9129 H         1 <0>         0.1321 
      47 H18        8.8477   -1.5150    2.6680 H         1 <0>         0.1348 
      48 H19       11.1286   -1.7589    6.2844 H         1 <0>         0.1285 
      49 H20        9.2770   -0.7254    7.5380 H         1 <0>         0.1266 
      50 H21       12.2883   -3.0006    5.2458 H         1 <0>         0.0957 
      51 H22       12.6528   -3.6701    3.6405 H         1 <0>         0.0953 
      52 H23       10.7980   -5.0488    2.6190 H         1 <0>         0.4036 
      53 H24        9.8530   -6.0084    3.7361 H         1 <0>         0.4104 
@<TRIPOS>BOND
       1        1        2 1        
       2        1       30 1        
       3        1       31 1        
       4        1       32 1        
       5        2        3 2        
       6        2        4 am       
       7        4        5 1        
       8        4       33 1        
       9        5       10 ar       
      10        5        6 ar       
      11        6        7 ar       
      12        6       34 1        
      13        7        8 ar       
      14        7       35 1        
      15        8        9 ar       
      16        8       13 1        
      17        9       10 ar       
      18        9       36 1        
      19       10       11 1        
      20       11       12 1        
      21       12       37 1        
      22       12       38 1        
      23       12       39 1        
      24       13       14 am       
      25       13       40 1        
      26       14       15 2        
      27       14       16 am       
      28       16       17 1        
      29       16       41 1        
      30       17       18 1        
      31       17       42 1        
      32       17       43 1        
      33       18       19 1        
      34       18       44 1        
      35       18       45 1        
      36       19       24 ar       
      37       19       20 ar       
      38       20       21 ar       
      39       20       46 1        
      40       21       22 ar       
      41       21       47 1        
      42       22       23 ar       
      43       22       25 1        
      44       23       24 ar       
      45       23       48 1        
      46       24       49 1        
      47       25       26 1        
      48       26       27 1        
      49       26       50 1        
      50       26       51 1        
      51       27       28 2        
      52       27       29 am       
      53       29       52 1        
      54       29       53 1        

