#        1GCZ_R01_S0001_C0000_L00015_S0001_C0039_G0010_E0001.mol2
#        Tue Jun  6 14:17:31 2017
#        Descriptor:     16    23     7    11     6    15
#        Energy - RMSD - RMSD MassCentre:     -65.2802    999.9999    999.9999
#        Receptor:       1  Surface Point:     1  Conformer:     0
#        Ligand:        15  Surface Point:     1  Conformer:    39
#        BUDE Formal Charge: 0
#        ATOM Count: 53
#        Heavy ATOM Count: 29
@<TRIPOS>MOLECULE
ZINC61646583_1GCZ_R01_S0001_C0000_L00015_S0001_C0039_G0010_E0001
 53 54 0 0 0
SMALL
USER_CHARGES
@<TRIPOS>ATOM
       1 C1         4.4920    5.6306    9.0145 C.3       1 <0>        -0.1727 
       2 C2         4.2445    4.2389    8.4834 C.2       1 <0>         0.5094 
       3 O1         3.1121    3.7599    8.5154 O.2       1 <0>        -0.5291 
       4 N1         5.2517    3.5305    7.9809 N.am      1 <0>        -0.6649 
       5 C3         5.0198    2.2264    7.4833 C.ar      1 <0>         0.0992 
       6 C4         3.7408    1.6517    7.4931 C.ar      1 <0>        -0.0654 
       7 C5         3.5674    0.3179    7.1048 C.ar      1 <0>        -0.1341 
       8 C6         4.6456   -0.4097    6.5873 C.ar      1 <0>         0.1883 
       9 C7         5.9155    0.1787    6.5558 C.ar      1 <0>        -0.2193 
      10 C8         6.1004    1.5060    6.9606 C.ar      1 <0>         0.1218 
      11 O2         7.3075    2.1495    6.8864 O.3       1 <0>        -0.3161 
      12 C9         8.1156    1.9281    5.7276 C.3       1 <0>         0.0284 
      13 N2         4.4301   -1.7113    6.0758 N.am      1 <0>        -0.6855 
      14 C10        5.4485   -2.4099    5.5820 C.2       1 <0>         0.7035 
      15 O3         6.5969   -1.9163    5.5700 O.2       1 <0>        -0.5662 
      16 N3         5.2444   -3.6332    5.1016 N.am      1 <0>        -0.7422 
      17 C11        3.8934   -4.2122    5.1167 C.3       1 <0>         0.1412 
      18 C12        3.4200   -4.3609    6.5619 C.3       1 <0>        -0.0858 
      19 C13        2.0322   -4.9556    6.5774 C.ar      1 <0>        -0.1209 
      20 C14        0.9030   -4.1289    6.5377 C.ar      1 <0>        -0.0699 
      21 C15       -0.3835   -4.6810    6.5151 C.ar      1 <0>        -0.1435 
      22 C16       -0.5522   -6.0665    6.5603 C.ar      1 <0>         0.1285 
      23 C17        0.5718   -6.8988    6.6215 C.ar      1 <0>        -0.2085 
      24 C18        1.8572   -6.3438    6.6264 C.ar      1 <0>        -0.0706 
      25 O4        -1.8123   -6.6036    6.5425 O.3       1 <0>        -0.2897 
      26 C19       -2.0773   -7.7211    7.3946 C.3       1 <0>         0.0392 
      27 C20       -1.8569   -7.3193    8.8334 C.2       1 <0>         0.5189 
      28 O5        -0.8568   -7.7089    9.4341 O.2       1 <0>        -0.5163 
      29 N4        -2.7444   -6.5441    9.4503 N.am      1 <0>        -0.8501 
      30 H1         5.5370    5.8942    8.8660 H         1 <0>         0.0965 
      31 H2         3.8596    6.3387    8.4829 H         1 <0>         0.0914 
      32 H3         4.2572    5.6600   10.0763 H         1 <0>         0.0912 
      33 H4         6.1820    3.9228    7.9542 H         1 <0>         0.4136 
      34 H5         2.8743    2.2217    7.7947 H         1 <0>         0.1501 
      35 H6         2.5966   -0.1475    7.1911 H         1 <0>         0.1469 
      36 H7         6.7263   -0.4268    6.1788 H         1 <0>         0.1349 
      37 H8         7.5762    2.2571    4.8419 H         1 <0>         0.1017 
      38 H9         9.0418    2.4916    5.8190 H         1 <0>         0.0561 
      39 H10        8.3426    0.8676    5.6418 H         1 <0>         0.0561 
      40 H11        3.5022   -2.1100    6.0855 H         1 <0>         0.4065 
      41 H12        6.0178   -4.1637    4.7269 H         1 <0>         0.3980 
      42 H13        3.9129   -5.1892    4.6385 H         1 <0>         0.0719 
      43 H14        3.2127   -3.5571    4.5770 H         1 <0>         0.0706 
      44 H15        3.4017   -3.3833    7.0392 H         1 <0>         0.0792 
      45 H16        4.1018   -5.0154    7.1006 H         1 <0>         0.0805 
      46 H17        1.0082   -3.0543    6.5217 H         1 <0>         0.1321 
      47 H18       -1.2529   -4.0419    6.4696 H         1 <0>         0.1348 
      48 H19        0.4417   -7.9703    6.6613 H         1 <0>         0.1285 
      49 H20        2.7087   -7.0066    6.6695 H         1 <0>         0.1266 
      50 H21       -1.4062   -8.5384    7.1389 H         1 <0>         0.0957 
      51 H22       -3.1081   -8.0420    7.2609 H         1 <0>         0.0953 
      52 H23       -3.5652   -6.2247    8.9560 H         1 <0>         0.4036 
      53 H24       -2.5970   -6.2752   10.4126 H         1 <0>         0.4104 
@<TRIPOS>BOND
       1        1        2 1        
       2        1       30 1        
       3        1       31 1        
       4        1       32 1        
       5        2        3 2        
       6        2        4 am       
       7        4        5 1        
       8        4       33 1        
       9        5       10 ar       
      10        5        6 ar       
      11        6        7 ar       
      12        6       34 1        
      13        7        8 ar       
      14        7       35 1        
      15        8        9 ar       
      16        8       13 1        
      17        9       10 ar       
      18        9       36 1        
      19       10       11 1        
      20       11       12 1        
      21       12       37 1        
      22       12       38 1        
      23       12       39 1        
      24       13       14 am       
      25       13       40 1        
      26       14       15 2        
      27       14       16 am       
      28       16       17 1        
      29       16       41 1        
      30       17       18 1        
      31       17       42 1        
      32       17       43 1        
      33       18       19 1        
      34       18       44 1        
      35       18       45 1        
      36       19       24 ar       
      37       19       20 ar       
      38       20       21 ar       
      39       20       46 1        
      40       21       22 ar       
      41       21       47 1        
      42       22       23 ar       
      43       22       25 1        
      44       23       24 ar       
      45       23       48 1        
      46       24       49 1        
      47       25       26 1        
      48       26       27 1        
      49       26       50 1        
      50       26       51 1        
      51       27       28 2        
      52       27       29 am       
      53       29       52 1        
      54       29       53 1        

