#        1GCZ_R01_S0001_C0000_L00015_S0001_C0042_G0010_E0001.mol2
#        Tue Jun  6 10:00:40 2017
#        Descriptor:     28    21    32     7     6    13
#        Energy - RMSD - RMSD MassCentre:     -69.3370    999.9999    999.9999
#        Receptor:       1  Surface Point:     1  Conformer:     0
#        Ligand:        15  Surface Point:     1  Conformer:    42
#        BUDE Formal Charge: 0
#        ATOM Count: 53
#        Heavy ATOM Count: 29
@<TRIPOS>MOLECULE
ZINC61646583_1GCZ_R01_S0001_C0000_L00015_S0001_C0042_G0010_E0001
 53 54 0 0 0
SMALL
USER_CHARGES
@<TRIPOS>ATOM
       1 C1         0.0153   -8.7458    9.5201 C.3       1 <0>        -0.1727 
       2 C2        -0.3083   -7.4955    8.7376 C.2       1 <0>         0.5094 
       3 O1        -0.1445   -7.4720    7.5189 O.2       1 <0>        -0.5291 
       4 N1        -0.7705   -6.4188    9.3669 N.am      1 <0>        -0.6649 
       5 C3        -1.0736   -5.2472    8.6337 C.ar      1 <0>         0.0992 
       6 C4        -0.9101   -5.1869    7.2423 C.ar      1 <0>        -0.0654 
       7 C5        -1.1046   -3.9776    6.5643 C.ar      1 <0>        -0.1341 
       8 C6        -1.5833   -2.8555    7.2509 C.ar      1 <0>         0.1883 
       9 C7        -1.7695   -2.9296    8.6365 C.ar      1 <0>        -0.2193 
      10 C8        -1.5586   -4.1303    9.3246 C.ar      1 <0>         0.1218 
      11 O2        -1.7906   -4.2740   10.6671 O.3       1 <0>        -0.3161 
      12 C9        -2.9555   -3.6527   11.2167 C.3       1 <0>         0.0284 
      13 N2        -1.9015   -1.6788    6.5324 N.am      1 <0>        -0.6855 
      14 C10       -2.3570   -0.6079    7.1764 C.2       1 <0>         0.7035 
      15 O3        -2.5040   -0.6410    8.4174 O.2       1 <0>        -0.5662 
      16 N3        -2.6557    0.4975    6.4997 N.am      1 <0>        -0.7422 
      17 C11       -2.4821    0.5348    5.0406 C.3       1 <0>         0.1412 
      18 C12       -1.0043    0.3490    4.6994 C.3       1 <0>        -0.0858 
      19 C13       -0.8260    0.3873    3.2005 C.ar      1 <0>        -0.1209 
      20 C14       -0.9087   -0.7876    2.4436 C.ar      1 <0>        -0.0699 
      21 C15       -0.7799   -0.7476    1.0500 C.ar      1 <0>        -0.1435 
      22 C16       -0.5390    0.4664    0.4032 C.ar      1 <0>         0.1285 
      23 C17       -0.4339    1.6424    1.1555 C.ar      1 <0>        -0.2085 
      24 C18       -0.5806    1.6010    2.5473 C.ar      1 <0>        -0.0706 
      25 O4        -0.4089    0.5018   -0.9601 O.3       1 <0>        -0.2897 
      26 C19        0.5999    1.3494   -1.5160 C.3       1 <0>         0.0392 
      27 C20        0.5739    1.2405   -3.0217 C.2       1 <0>         0.5189 
      28 O5         0.1082    2.1576   -3.6963 O.2       1 <0>        -0.5163 
      29 N4         1.0546    0.1530   -3.6178 N.am      1 <0>        -0.8501 
      30 H1        -0.2296   -8.5902   10.5686 H         1 <0>         0.0965 
      31 H2        -0.5678   -9.5777    9.1304 H         1 <0>         0.0914 
      32 H3         1.0757   -8.9689    9.4238 H         1 <0>         0.0912 
      33 H4        -0.9053   -6.4368   10.3676 H         1 <0>         0.4136 
      34 H5        -0.6365   -6.0632    6.6733 H         1 <0>         0.1501 
      35 H6        -0.8986   -3.9130    5.5060 H         1 <0>         0.1469 
      36 H7        -2.1096   -2.0331    9.1333 H         1 <0>         0.1349 
      37 H8        -3.8435   -4.0635   10.7408 H         1 <0>         0.1017 
      38 H9        -2.9962   -3.8427   12.2872 H         1 <0>         0.0561 
      39 H10       -2.9114   -2.5802   11.0396 H         1 <0>         0.0561 
      40 H11       -1.7828   -1.6520    5.5298 H         1 <0>         0.4065 
      41 H12       -3.0014    1.3107    6.9888 H         1 <0>         0.3980 
      42 H13       -2.8251    1.4944    4.6596 H         1 <0>         0.0719 
      43 H14       -3.0632   -0.2650    4.5863 H         1 <0>         0.0706 
      44 H15       -0.6624   -0.6106    5.0816 H         1 <0>         0.0792 
      45 H16       -0.4244    1.1489    5.1548 H         1 <0>         0.0805 
      46 H17       -1.0752   -1.7406    2.9234 H         1 <0>         0.1321 
      47 H18       -0.8587   -1.6530    0.4665 H         1 <0>         0.1348 
      48 H19       -0.2429    2.5808    0.6562 H         1 <0>         0.1285 
      49 H20       -0.4999    2.5221    3.1054 H         1 <0>         0.1266 
      50 H21        1.5756    1.0412   -1.1462 H         1 <0>         0.0957 
      51 H22        0.4089    2.3796   -1.2228 H         1 <0>         0.0953 
      52 H23        1.4368   -0.5994   -3.0629 H         1 <0>         0.4036 
      53 H24        1.0374    0.0803   -4.6250 H         1 <0>         0.4104 
@<TRIPOS>BOND
       1        1        2 1        
       2        1       30 1        
       3        1       31 1        
       4        1       32 1        
       5        2        3 2        
       6        2        4 am       
       7        4        5 1        
       8        4       33 1        
       9        5       10 ar       
      10        5        6 ar       
      11        6        7 ar       
      12        6       34 1        
      13        7        8 ar       
      14        7       35 1        
      15        8        9 ar       
      16        8       13 1        
      17        9       10 ar       
      18        9       36 1        
      19       10       11 1        
      20       11       12 1        
      21       12       37 1        
      22       12       38 1        
      23       12       39 1        
      24       13       14 am       
      25       13       40 1        
      26       14       15 2        
      27       14       16 am       
      28       16       17 1        
      29       16       41 1        
      30       17       18 1        
      31       17       42 1        
      32       17       43 1        
      33       18       19 1        
      34       18       44 1        
      35       18       45 1        
      36       19       24 ar       
      37       19       20 ar       
      38       20       21 ar       
      39       20       46 1        
      40       21       22 ar       
      41       21       47 1        
      42       22       23 ar       
      43       22       25 1        
      44       23       24 ar       
      45       23       48 1        
      46       24       49 1        
      47       25       26 1        
      48       26       27 1        
      49       26       50 1        
      50       26       51 1        
      51       27       28 2        
      52       27       29 am       
      53       29       52 1        
      54       29       53 1        

