#        1GCZ_R01_S0001_C0000_L00015_S0001_C0042_G0010_E0001.mol2
#        Tue Jun  6 14:17:37 2017
#        Descriptor:     24    21    20    14     7    12
#        Energy - RMSD - RMSD MassCentre:     -58.8558    999.9999    999.9999
#        Receptor:       1  Surface Point:     1  Conformer:     0
#        Ligand:        15  Surface Point:     1  Conformer:    42
#        BUDE Formal Charge: 0
#        ATOM Count: 53
#        Heavy ATOM Count: 29
@<TRIPOS>MOLECULE
ZINC61646583_1GCZ_R01_S0001_C0000_L00015_S0001_C0042_G0010_E0001
 53 54 0 0 0
SMALL
USER_CHARGES
@<TRIPOS>ATOM
       1 C1        -1.7997    0.7704    5.7317 C.3       1 <0>        -0.1727 
       2 C2        -0.3385    0.5871    5.3974 C.2       1 <0>         0.5094 
       3 O1        -0.0065   -0.1522    4.4723 O.2       1 <0>        -0.5291 
       4 N1         0.5900    1.2254    6.1040 N.am      1 <0>        -0.6649 
       5 C3         1.9591    1.0536    5.7908 C.ar      1 <0>         0.0992 
       6 C4         2.3748    0.2278    4.7365 C.ar      1 <0>        -0.0654 
       7 C5         3.7381   -0.0141    4.5297 C.ar      1 <0>        -0.1341 
       8 C6         4.6962    0.6636    5.2929 C.ar      1 <0>         0.1883 
       9 C7         4.2746    1.5072    6.3274 C.ar      1 <0>        -0.2193 
      10 C8         2.9126    1.7392    6.5528 C.ar      1 <0>         0.1218 
      11 O2         2.4491    2.6063    7.5068 O.3       1 <0>        -0.3161 
      12 C9         3.1391    3.8472    7.6773 C.3       1 <0>         0.0284 
      13 N2         6.0694    0.5117    4.9871 N.am      1 <0>        -0.6855 
      14 C10        6.9867    1.1518    5.7066 C.2       1 <0>         0.7035 
      15 O3         6.6355    1.8879    6.6539 O.2       1 <0>        -0.5662 
      16 N3         8.2770    1.0080    5.4180 N.am      1 <0>        -0.7422 
      17 C11        8.6884    0.1418    4.3040 C.3       1 <0>         0.1412 
      18 C12        8.2717   -1.2984    4.5990 C.3       1 <0>        -0.0858 
      19 C13        8.6942   -2.1882    3.4545 C.ar      1 <0>        -0.1209 
      20 C14        7.8367   -2.4083    2.3700 C.ar      1 <0>        -0.0699 
      21 C15        8.2421   -3.2037    1.2914 C.ar      1 <0>        -0.1435 
      22 C16        9.5003   -3.8095    1.3017 C.ar      1 <0>         0.1285 
      23 C17       10.3549   -3.6112    2.3926 C.ar      1 <0>        -0.2085 
      24 C18        9.9529   -2.8010    3.4614 C.ar      1 <0>        -0.0706 
      25 O4         9.8925   -4.5909    0.2470 O.3       1 <0>        -0.2897 
      26 C19       10.6066   -5.7962    0.5342 C.3       1 <0>         0.0392 
      27 C20       10.9413   -6.5018   -0.7580 C.2       1 <0>         0.5189 
      28 O5        12.0946   -6.4868   -1.1856 O.2       1 <0>        -0.5163 
      29 N4         9.9891   -7.1394   -1.4332 N.am      1 <0>        -0.8501 
      30 H1        -1.8978    1.4854    6.5458 H         1 <0>         0.0965 
      31 H2        -2.3274    1.1425    4.8559 H         1 <0>         0.0914 
      32 H3        -2.2246   -0.1845    6.0334 H         1 <0>         0.0912 
      33 H4         0.3185    1.8327    6.8639 H         1 <0>         0.4136 
      34 H5         1.6590   -0.2303    4.0699 H         1 <0>         0.1501 
      35 H6         4.0528   -0.7146    3.7702 H         1 <0>         0.1469 
      36 H7         5.0452    1.9866    6.9129 H         1 <0>         0.1349 
      37 H8         3.0980    4.4146    6.7498 H         1 <0>         0.1017 
      38 H9         2.6660    4.4181    8.4735 H         1 <0>         0.0561 
      39 H10        4.1771    3.6515    7.9379 H         1 <0>         0.0561 
      40 H11        6.3531   -0.0831    4.2217 H         1 <0>         0.4065 
      41 H12        8.9736    1.4939    5.9646 H         1 <0>         0.3980 
      42 H13        9.7690    0.1907    4.1873 H         1 <0>         0.0719 
      43 H14        8.2084    0.4783    3.3874 H         1 <0>         0.0706 
      44 H15        7.1910   -1.3457    4.7163 H         1 <0>         0.0792 
      45 H16        8.7516   -1.6334    5.5161 H         1 <0>         0.0805 
      46 H17        6.8517   -1.9660    2.3487 H         1 <0>         0.1321 
      47 H18        7.5848   -3.3602    0.4489 H         1 <0>         0.1348 
      48 H19       11.3262   -4.0833    2.4032 H         1 <0>         0.1285 
      49 H20       10.6315   -2.6595    4.2896 H         1 <0>         0.1266 
      50 H21        9.9890   -6.4441    1.1526 H         1 <0>         0.0957 
      51 H22       11.5252   -5.5549    1.0650 H         1 <0>         0.0953 
      52 H23        9.0424   -7.1512   -1.0811 H         1 <0>         0.4036 
      53 H24       10.2130   -7.6115   -2.2974 H         1 <0>         0.4104 
@<TRIPOS>BOND
       1        1        2 1        
       2        1       30 1        
       3        1       31 1        
       4        1       32 1        
       5        2        3 2        
       6        2        4 am       
       7        4        5 1        
       8        4       33 1        
       9        5       10 ar       
      10        5        6 ar       
      11        6        7 ar       
      12        6       34 1        
      13        7        8 ar       
      14        7       35 1        
      15        8        9 ar       
      16        8       13 1        
      17        9       10 ar       
      18        9       36 1        
      19       10       11 1        
      20       11       12 1        
      21       12       37 1        
      22       12       38 1        
      23       12       39 1        
      24       13       14 am       
      25       13       40 1        
      26       14       15 2        
      27       14       16 am       
      28       16       17 1        
      29       16       41 1        
      30       17       18 1        
      31       17       42 1        
      32       17       43 1        
      33       18       19 1        
      34       18       44 1        
      35       18       45 1        
      36       19       24 ar       
      37       19       20 ar       
      38       20       21 ar       
      39       20       46 1        
      40       21       22 ar       
      41       21       47 1        
      42       22       23 ar       
      43       22       25 1        
      44       23       24 ar       
      45       23       48 1        
      46       24       49 1        
      47       25       26 1        
      48       26       27 1        
      49       26       50 1        
      50       26       51 1        
      51       27       28 2        
      52       27       29 am       
      53       29       52 1        
      54       29       53 1        

