#        1GCZ_R01_S0001_C0000_L00003_S0001_C0032_G0010_E0001.mol2
#        Tue Jun  6 14:04:31 2017
#        Descriptor:      8     8     3     9     9    13
#        Energy - RMSD - RMSD MassCentre:     -65.4068    999.9999    999.9999
#        Receptor:       1  Surface Point:     1  Conformer:     0
#        Ligand:         3  Surface Point:     1  Conformer:    32
#        BUDE Formal Charge: 0
#        ATOM Count: 58
#        Heavy ATOM Count: 30
@<TRIPOS>MOLECULE
ZINC61580633_1GCZ_R01_S0001_C0000_L00003_S0001_C0032_G0010_E0001
 58 59 0 0 0
SMALL
USER_CHARGES
@<TRIPOS>ATOM
       1 C1         0.0443   -1.2748   -0.6347 C.3       1 <0>        -0.1532 
       2 C2         0.2881    0.2072   -0.3646 C.3       1 <0>        -0.1224 
       3 C3        -0.2312    0.5624    1.0278 C.3       1 <0>        -0.1198 
       4 C4        -1.7327    0.2874    1.0959 C.3       1 <0>         0.0610 
       5 O1        -2.2187    0.6198    2.3991 O.3       1 <0>        -0.3878 
       6 C5        -1.5889   -0.1594    3.4195 C.3       1 <0>         0.0487 
       7 C6        -2.1488    0.2413    4.7835 C.3       1 <0>         0.1244 
       8 N1        -1.5014   -0.5598    5.8323 N.am      1 <0>        -0.7216 
       9 C7        -1.7977   -1.8499    5.9613 C.2       1 <0>         0.5161 
      10 O2        -2.6128   -2.3732    5.2036 O.2       1 <0>        -0.5151 
      11 C8        -1.1326   -2.6727    7.0388 C.3       1 <0>         0.0490 
      12 O3         0.2493   -2.8505    6.7169 O.3       1 <0>        -0.3194 
      13 C9         1.0311   -1.7518    6.6533 C.2       1 <0>         0.5417 
      14 O4         0.5541   -0.6495    6.8672 O.2       1 <0>        -0.5337 
      15 C10        2.4677   -1.8845    6.3238 C.2       1 <0>        -0.2559 
      16 C11        3.1499   -3.1713    6.0605 C.2       1 <0>        -0.0791 
      17 C12        4.4500   -3.0140    5.8010 C.2       1 <0>        -0.2585 
      18 S1         4.9547   -1.3182    5.8458 S.3       1 <0>         0.3028 
      19 C13        3.2989   -0.8365    6.2443 C.2       1 <0>         0.0893 
      20 N2         2.8765    0.4480    6.4644 N.am      1 <0>        -0.6099 
      21 C14        3.7383    1.4570    6.3744 C.2       1 <0>         0.5551 
      22 O5         4.9153    1.2368    6.0934 O.2       1 <0>        -0.4939 
      23 C15        3.2803    2.8441    6.6124 C.ar      1 <0>        -0.1466 
      24 C16        4.2216    3.8754    6.5103 C.ar      1 <0>        -0.0772 
      25 C17        3.8656    5.1989    6.7960 C.ar      1 <0>        -0.1241 
      26 C18        2.5629    5.5143    7.1993 C.ar      1 <0>        -0.0446 
      27 C19        1.6064    4.4933    7.2508 C.ar      1 <0>        -0.1261 
      28 C20        1.9592    3.1756    6.9361 C.ar      1 <0>        -0.0460 
      29 C21        2.2149    6.9381    7.5629 C.3       1 <0>        -0.0928 
      30 C22        2.4523    7.1537    9.0547 C.3       1 <0>        -0.1485 
      31 H1        -1.0235   -1.4794   -0.5941 H         1 <0>         0.0567 
      32 H2         0.5569   -1.8692    0.1188 H         1 <0>         0.0554 
      33 H3         0.4262   -1.5307   -1.6208 H         1 <0>         0.0557 
      34 H4         1.3548    0.4154   -0.4173 H         1 <0>         0.0632 
      35 H5        -0.2356    0.8030   -1.1092 H         1 <0>         0.0635 
      36 H6         0.2818   -0.0429    1.7722 H         1 <0>         0.0711 
      37 H7        -0.0467    1.6160    1.2265 H         1 <0>         0.0704 
      38 H8        -2.2470    0.8928    0.3524 H         1 <0>         0.0498 
      39 H9        -1.9184   -0.7662    0.8982 H         1 <0>         0.0505 
      40 H10       -0.5158    0.0186    3.4022 H         1 <0>         0.0584 
      41 H11       -1.7850   -1.2151    3.2435 H         1 <0>         0.0702 
      42 H12       -3.2218    0.0630    4.8023 H         1 <0>         0.0872 
      43 H13       -1.9526    1.2965    4.9610 H         1 <0>         0.0805 
      44 H14       -0.8318   -0.1310    6.4552 H         1 <0>         0.4058 
      45 H15       -1.2186   -2.1586    7.9937 H         1 <0>         0.1008 
      46 H16       -1.6169   -3.6447    7.1045 H         1 <0>         0.0999 
      47 H17        2.6314   -4.1186    6.0703 H         1 <0>         0.1557 
      48 H18        5.1063   -3.8417    5.5764 H         1 <0>         0.1929 
      49 H19        1.9100    0.6289    6.6951 H         1 <0>         0.4317 
      50 H20        5.2348    3.6496    6.2126 H         1 <0>         0.1287 
      51 H21        4.5987    5.9870    6.7078 H         1 <0>         0.1326 
      52 H22        0.5927    4.7372    7.5325 H         1 <0>         0.1342 
      53 H23        1.1670    2.4417    6.9357 H         1 <0>         0.1410 
      54 H24        1.1687    7.1257    7.3306 H         1 <0>         0.0777 
      55 H25        2.8416    7.6208    6.9928 H         1 <0>         0.0771 
      56 H26        3.5014    6.9781    9.2835 H         1 <0>         0.0623 
      57 H27        1.8356    6.4608    9.6233 H         1 <0>         0.0572 
      58 H28        2.1890    8.1757    9.3191 H         1 <0>         0.0578 
@<TRIPOS>BOND
       1        1        2 1        
       2        1       31 1        
       3        1       32 1        
       4        1       33 1        
       5        2        3 1        
       6        2       34 1        
       7        2       35 1        
       8        3        4 1        
       9        3       36 1        
      10        3       37 1        
      11        4        5 1        
      12        4       38 1        
      13        4       39 1        
      14        5        6 1        
      15        6        7 1        
      16        6       40 1        
      17        6       41 1        
      18        7        8 1        
      19        7       42 1        
      20        7       43 1        
      21        8        9 am       
      22        8       44 1        
      23        9       10 2        
      24        9       11 1        
      25       11       12 1        
      26       11       45 1        
      27       11       46 1        
      28       12       13 1        
      29       13       14 2        
      30       13       15 1        
      31       15       19 2        
      32       15       16 1        
      33       16       17 2        
      34       16       47 1        
      35       17       18 1        
      36       17       48 1        
      37       18       19 1        
      38       19       20 1        
      39       20       21 am       
      40       20       49 1        
      41       21       22 2        
      42       21       23 1        
      43       23       28 ar       
      44       23       24 ar       
      45       24       25 ar       
      46       24       50 1        
      47       25       26 ar       
      48       25       51 1        
      49       26       27 ar       
      50       26       29 1        
      51       27       28 ar       
      52       27       52 1        
      53       28       53 1        
      54       29       30 1        
      55       29       54 1        
      56       29       55 1        
      57       30       56 1        
      58       30       57 1        
      59       30       58 1        

