#        1GCZ_R01_S0001_C0000_L00015_S0001_C0044_G0010_E0001.mol2
#        Tue Jun  6 10:00:42 2017
#        Descriptor:     27     5    30    12     9    14
#        Energy - RMSD - RMSD MassCentre:     -65.9007    999.9999    999.9999
#        Receptor:       1  Surface Point:     1  Conformer:     0
#        Ligand:        15  Surface Point:     1  Conformer:    44
#        BUDE Formal Charge: 0
#        ATOM Count: 53
#        Heavy ATOM Count: 29
@<TRIPOS>MOLECULE
ZINC61646583_1GCZ_R01_S0001_C0000_L00015_S0001_C0044_G0010_E0001
 53 54 0 0 0
SMALL
USER_CHARGES
@<TRIPOS>ATOM
       1 C1        -2.3916    0.9113    1.2352 C.3       1 <0>        -0.1727 
       2 C2        -1.3163    0.5390    2.2278 C.2       1 <0>         0.5094 
       3 O1        -0.4867   -0.3232    1.9426 O.2       1 <0>        -0.5291 
       4 N1        -1.2662    1.1437    3.4113 N.am      1 <0>        -0.6649 
       5 C3        -0.2587    0.7948    4.3414 C.ar      1 <0>         0.0992 
       6 C4         0.7104   -0.1752    4.0473 C.ar      1 <0>        -0.0654 
       7 C5         1.6183   -0.5818    5.0324 C.ar      1 <0>        -0.1341 
       8 C6         1.6450    0.0646    6.2739 C.ar      1 <0>         0.1883 
       9 C7         0.6912    1.0507    6.5521 C.ar      1 <0>        -0.2193 
      10 C8        -0.2325    1.4493    5.5787 C.ar      1 <0>         0.1218 
      11 O2        -1.1416    2.4548    5.7771 O.3       1 <0>        -0.3161 
      12 C9        -0.7055    3.6256    6.4727 C.3       1 <0>         0.0284 
      13 N2         2.6518   -0.2643    7.2122 N.am      1 <0>        -0.6855 
      14 C10        3.5662   -1.1828    6.9134 C.2       1 <0>         0.7035 
      15 O3         3.5362   -1.7558    5.8029 O.2       1 <0>        -0.5662 
      16 N3         4.5120   -1.4908    7.7963 N.am      1 <0>        -0.7422 
      17 C11        4.5460   -0.8159    9.1017 C.3       1 <0>         0.1412 
      18 C12        4.7861    0.6789    8.8952 C.3       1 <0>        -0.0858 
      19 C13        6.1374    0.8869    8.2542 C.ar      1 <0>        -0.1209 
      20 C14        7.2822    1.0491    9.0435 C.ar      1 <0>        -0.0699 
      21 C15        8.5405    1.2054    8.4498 C.ar      1 <0>        -0.1435 
      22 C16        8.6607    1.2289    7.0587 C.ar      1 <0>         0.1285 
      23 C17        7.5174    1.0885    6.2629 C.ar      1 <0>        -0.2085 
      24 C18        6.2631    0.9149    6.8601 C.ar      1 <0>        -0.0706 
      25 O4         9.8926    1.3865    6.4806 O.3       1 <0>        -0.2897 
      26 C19        9.9908    2.2306    5.3305 C.3       1 <0>         0.0392 
      27 C20       11.4232    2.2662    4.8542 C.2       1 <0>         0.5189 
      28 O5        11.7488    1.6531    3.8387 O.2       1 <0>        -0.5163 
      29 N4        12.3322    2.9606    5.5330 N.am      1 <0>        -0.8501 
      30 H1        -3.0018    1.7128    1.6461 H         1 <0>         0.0965 
      31 H2        -1.9290    1.2453    0.3087 H         1 <0>         0.0914 
      32 H3        -3.0170    0.0437    1.0365 H         1 <0>         0.0912 
      33 H4        -1.9469    1.8517    3.6465 H         1 <0>         0.4136 
      34 H5         0.7754   -0.6203    3.0655 H         1 <0>         0.1501 
      35 H6         2.3096   -1.3865    4.8300 H         1 <0>         0.1469 
      36 H7         0.7260    1.5026    7.5325 H         1 <0>         0.1349 
      37 H8         0.1045    4.0953    5.9186 H         1 <0>         0.1017 
      38 H9        -1.5356    4.3230    6.5637 H         1 <0>         0.0561 
      39 H10       -0.3542    3.3478    7.4642 H         1 <0>         0.0561 
      40 H11        2.6761    0.1987    8.1094 H         1 <0>         0.4065 
      41 H12        5.2064   -2.1882    7.5694 H         1 <0>         0.3980 
      42 H13        5.3502   -1.2332    9.7041 H         1 <0>         0.0719 
      43 H14        3.5961   -0.9644    9.6109 H         1 <0>         0.0706 
      44 H15        4.7583    1.1864    9.8571 H         1 <0>         0.0792 
      45 H16        4.0108    1.0840    8.2482 H         1 <0>         0.0805 
      46 H17        7.2114    1.0538   10.1212 H         1 <0>         0.1321 
      47 H18        9.4244    1.3157    9.0605 H         1 <0>         0.1348 
      48 H19        7.6094    1.1112    5.1871 H         1 <0>         0.1285 
      49 H20        5.3966    0.8042    6.2251 H         1 <0>         0.1266 
      50 H21        9.6696    3.2367    5.5913 H         1 <0>         0.0957 
      51 H22        9.3545    1.8397    4.5392 H         1 <0>         0.0953 
      52 H23       12.0638    3.4636    6.3667 H         1 <0>         0.4036 
      53 H24       13.2903    2.9845    5.2144 H         1 <0>         0.4104 
@<TRIPOS>BOND
       1        1        2 1        
       2        1       30 1        
       3        1       31 1        
       4        1       32 1        
       5        2        3 2        
       6        2        4 am       
       7        4        5 1        
       8        4       33 1        
       9        5       10 ar       
      10        5        6 ar       
      11        6        7 ar       
      12        6       34 1        
      13        7        8 ar       
      14        7       35 1        
      15        8        9 ar       
      16        8       13 1        
      17        9       10 ar       
      18        9       36 1        
      19       10       11 1        
      20       11       12 1        
      21       12       37 1        
      22       12       38 1        
      23       12       39 1        
      24       13       14 am       
      25       13       40 1        
      26       14       15 2        
      27       14       16 am       
      28       16       17 1        
      29       16       41 1        
      30       17       18 1        
      31       17       42 1        
      32       17       43 1        
      33       18       19 1        
      34       18       44 1        
      35       18       45 1        
      36       19       24 ar       
      37       19       20 ar       
      38       20       21 ar       
      39       20       46 1        
      40       21       22 ar       
      41       21       47 1        
      42       22       23 ar       
      43       22       25 1        
      44       23       24 ar       
      45       23       48 1        
      46       24       49 1        
      47       25       26 1        
      48       26       27 1        
      49       26       50 1        
      50       26       51 1        
      51       27       28 2        
      52       27       29 am       
      53       29       52 1        
      54       29       53 1        

