#        1GCZ_R01_S0001_C0000_L00015_S0001_C0046_G0010_E0001.mol2
#        Tue Jun  6 10:00:43 2017
#        Descriptor:      7    14    12    14     8    13
#        Energy - RMSD - RMSD MassCentre:     -57.6370    999.9999    999.9999
#        Receptor:       1  Surface Point:     1  Conformer:     0
#        Ligand:        15  Surface Point:     1  Conformer:    46
#        BUDE Formal Charge: 0
#        ATOM Count: 53
#        Heavy ATOM Count: 29
@<TRIPOS>MOLECULE
ZINC61646583_1GCZ_R01_S0001_C0000_L00015_S0001_C0046_G0010_E0001
 53 54 0 0 0
SMALL
USER_CHARGES
@<TRIPOS>ATOM
       1 C1        -1.2026    1.5550    2.2093 C.3       1 <0>        -0.1727 
       2 C2        -0.0113    0.8776    2.8433 C.2       1 <0>         0.5094 
       3 O1         0.4626   -0.1373    2.3350 O.2       1 <0>        -0.5291 
       4 N1         0.5259    1.3786    3.9520 N.am      1 <0>        -0.6649 
       5 C3         1.6422    0.7438    4.5460 C.ar      1 <0>         0.0992 
       6 C4         2.2162   -0.4082    3.9892 C.ar      1 <0>        -0.0654 
       7 C5         3.2421   -1.0787    4.6659 C.ar      1 <0>        -0.1341 
       8 C6         3.7847   -0.5354    5.8365 C.ar      1 <0>         0.1883 
       9 C7         3.2242    0.6295    6.3735 C.ar      1 <0>        -0.2193 
      10 C8         2.1851    1.2953    5.7127 C.ar      1 <0>         0.1218 
      11 O2         1.6475    2.4734    6.1599 O.3       1 <0>        -0.3161 
      12 C9         2.5391    3.4619    6.6821 C.3       1 <0>         0.0284 
      13 N2         4.9076   -1.1511    6.4383 N.am      1 <0>        -0.6855 
      14 C10        5.4423   -2.2399    5.8926 C.2       1 <0>         0.7035 
      15 O3         4.9525   -2.7194    4.8473 O.2       1 <0>        -0.5662 
      16 N3         6.4978   -2.8175    6.4594 N.am      1 <0>        -0.7422 
      17 C11        7.0726   -2.2522    7.6885 C.3       1 <0>         0.1412 
      18 C12        7.6008   -0.8470    7.4033 C.3       1 <0>        -0.0858 
      19 C13        8.7164   -0.9259    6.3888 C.ar      1 <0>        -0.1209 
      20 C14       10.0440   -1.0890    6.8019 C.ar      1 <0>        -0.0699 
      21 C15       11.0746   -1.1990    5.8606 C.ar      1 <0>        -0.1435 
      22 C16       10.7886   -1.1184    4.4961 C.ar      1 <0>         0.1285 
      23 C17        9.4658   -0.9342    4.0760 C.ar      1 <0>        -0.2085 
      24 C18        8.4358   -0.8421    5.0197 C.ar      1 <0>        -0.0706 
      25 O4        11.7996   -1.2218    3.5775 O.3       1 <0>        -0.2897 
      26 C19       11.7640   -0.3554    2.4404 C.3       1 <0>         0.0392 
      27 C20       11.8167    1.0814    2.9016 C.2       1 <0>         0.5189 
      28 O5        10.8029    1.7769    2.8632 O.2       1 <0>        -0.5163 
      29 N4        12.9594    1.5942    3.3493 N.am      1 <0>        -0.8501 
      30 H1        -1.4520    2.4513    2.7734 H         1 <0>         0.0965 
      31 H2        -0.9612    1.8267    1.1838 H         1 <0>         0.0914 
      32 H3        -2.0513    0.8745    2.2146 H         1 <0>         0.0912 
      33 H4         0.1375    2.2117    4.3702 H         1 <0>         0.4136 
      34 H5         1.8830   -0.7941    3.0372 H         1 <0>         0.1501 
      35 H6         3.6261   -2.0102    4.2770 H         1 <0>         0.1469 
      36 H7         3.6509    0.9986    7.2944 H         1 <0>         0.1349 
      37 H8         3.2431    3.7597    5.9078 H         1 <0>         0.1017 
      38 H9         1.9680    4.3292    7.0069 H         1 <0>         0.0561 
      39 H10        3.0833    3.0478    7.5282 H         1 <0>         0.0561 
      40 H11        5.3033   -0.7637    7.2829 H         1 <0>         0.4065 
      41 H12        6.9039   -3.6441    6.0449 H         1 <0>         0.3980 
      42 H13        7.8890   -2.8847    8.0305 H         1 <0>         0.0719 
      43 H14        6.3048   -2.2025    8.4577 H         1 <0>         0.0706 
      44 H15        7.9780   -0.4082    8.3246 H         1 <0>         0.0792 
      45 H16        6.7952   -0.2303    7.0103 H         1 <0>         0.0805 
      46 H17       10.2918   -1.1346    7.8521 H         1 <0>         0.1321 
      47 H18       12.0964   -1.3394    6.1810 H         1 <0>         0.1348 
      48 H19        9.2449   -0.8672    3.0211 H         1 <0>         0.1285 
      49 H20        7.4230   -0.7046    4.6710 H         1 <0>         0.1266 
      50 H21       10.8440   -0.5250    1.8847 H         1 <0>         0.0957 
      51 H22       12.6187   -0.5630    1.8001 H         1 <0>         0.0953 
      52 H23       12.9946    2.5552    3.6578 H         1 <0>         0.4036 
      53 H24       13.7913    1.0223    3.3803 H         1 <0>         0.4104 
@<TRIPOS>BOND
       1        1        2 1        
       2        1       30 1        
       3        1       31 1        
       4        1       32 1        
       5        2        3 2        
       6        2        4 am       
       7        4        5 1        
       8        4       33 1        
       9        5       10 ar       
      10        5        6 ar       
      11        6        7 ar       
      12        6       34 1        
      13        7        8 ar       
      14        7       35 1        
      15        8        9 ar       
      16        8       13 1        
      17        9       10 ar       
      18        9       36 1        
      19       10       11 1        
      20       11       12 1        
      21       12       37 1        
      22       12       38 1        
      23       12       39 1        
      24       13       14 am       
      25       13       40 1        
      26       14       15 2        
      27       14       16 am       
      28       16       17 1        
      29       16       41 1        
      30       17       18 1        
      31       17       42 1        
      32       17       43 1        
      33       18       19 1        
      34       18       44 1        
      35       18       45 1        
      36       19       24 ar       
      37       19       20 ar       
      38       20       21 ar       
      39       20       46 1        
      40       21       22 ar       
      41       21       47 1        
      42       22       23 ar       
      43       22       25 1        
      44       23       24 ar       
      45       23       48 1        
      46       24       49 1        
      47       25       26 1        
      48       26       27 1        
      49       26       50 1        
      50       26       51 1        
      51       27       28 2        
      52       27       29 am       
      53       29       52 1        
      54       29       53 1        

