#        1GCZ_R01_S0001_C0000_L00015_S0001_C0046_G0010_E0001.mol2
#        Tue Jun  6 14:17:45 2017
#        Descriptor:     30    33    16    10     8    15
#        Energy - RMSD - RMSD MassCentre:     -59.3818    999.9999    999.9999
#        Receptor:       1  Surface Point:     1  Conformer:     0
#        Ligand:        15  Surface Point:     1  Conformer:    46
#        BUDE Formal Charge: 0
#        ATOM Count: 53
#        Heavy ATOM Count: 29
@<TRIPOS>MOLECULE
ZINC61646583_1GCZ_R01_S0001_C0000_L00015_S0001_C0046_G0010_E0001
 53 54 0 0 0
SMALL
USER_CHARGES
@<TRIPOS>ATOM
       1 C1         9.6683    1.7940    6.7502 C.3       1 <0>        -0.1727 
       2 C2         8.2088    1.6275    6.4007 C.2       1 <0>         0.5094 
       3 O1         7.8796    0.9115    5.4562 O.2       1 <0>        -0.5291 
       4 N1         7.2787    2.2554    7.1143 N.am      1 <0>        -0.6649 
       5 C3         5.9111    2.0994    6.7868 C.ar      1 <0>         0.0992 
       6 C4         5.4973    1.2831    5.7243 C.ar      1 <0>        -0.0654 
       7 C5         4.1483    1.2452    5.3521 C.ar      1 <0>        -0.1341 
       8 C6         3.1892    1.9225    6.1146 C.ar      1 <0>         0.1883 
       9 C7         3.6061    2.7152    7.1904 C.ar      1 <0>        -0.2193 
      10 C8         4.9558    2.7735    7.5569 C.ar      1 <0>         0.1218 
      11 O2         5.4070    3.4796    8.6408 O.3       1 <0>        -0.3161 
      12 C9         4.6289    3.4376    9.8397 C.3       1 <0>         0.0284 
      13 N2         1.8163    1.7697    5.8077 N.am      1 <0>        -0.6855 
      14 C10        1.4423    0.9866    4.7999 C.2       1 <0>         0.7035 
      15 O3         2.3043    0.3849    4.1234 O.2       1 <0>        -0.5662 
      16 N3         0.1515    0.8439    4.5127 N.am      1 <0>        -0.7422 
      17 C11       -0.8607    1.5520    5.3093 C.3       1 <0>         0.1412 
      18 C12       -0.8059    1.0597    6.7548 C.3       1 <0>        -0.0858 
      19 C13       -1.1556   -0.4086    6.7991 C.ar      1 <0>        -0.1209 
      20 C14       -2.4848   -0.8193    6.9548 C.ar      1 <0>        -0.0699 
      21 C15       -2.8141   -2.1802    6.9592 C.ar      1 <0>        -0.1435 
      22 C16       -1.8110   -3.1440    6.8359 C.ar      1 <0>         0.1285 
      23 C17       -0.4770   -2.7411    6.7011 C.ar      1 <0>        -0.2085 
      24 C18       -0.1536   -1.3791    6.6796 C.ar      1 <0>        -0.0706 
      25 O4        -2.1357   -4.4749    6.8451 O.3       1 <0>        -0.2897 
      26 C19       -1.2801   -5.3690    7.5617 C.3       1 <0>         0.0392 
      27 C20       -1.2506   -4.9762    9.0194 C.2       1 <0>         0.5189 
      28 O5        -0.2589   -4.4171    9.4853 O.2       1 <0>        -0.5163 
      29 N4        -2.2969   -5.2348    9.7987 N.am      1 <0>        -0.8501 
      30 H1         9.7598    2.4262    7.6309 H         1 <0>         0.0965 
      31 H2        10.1048    0.8188    6.9562 H         1 <0>         0.0914 
      32 H3        10.1902    2.2563    5.9152 H         1 <0>         0.0912 
      33 H4         7.5479    2.8435    7.8899 H         1 <0>         0.4136 
      34 H5         6.2035    0.6731    5.1806 H         1 <0>         0.1501 
      35 H6         3.8439    0.6809    4.4831 H         1 <0>         0.1469 
      36 H7         2.8384    3.2464    7.7334 H         1 <0>         0.1349 
      37 H8         4.5616    2.4103   10.1919 H         1 <0>         0.1017 
      38 H9         5.1039    4.0523   10.6014 H         1 <0>         0.0561 
      39 H10        3.6302    3.8182    9.6366 H         1 <0>         0.0561 
      40 H11        1.1200    2.2558    6.3543 H         1 <0>         0.4065 
      41 H12       -0.1324    0.2490    3.7475 H         1 <0>         0.3980 
      42 H13       -1.8481    1.3566    4.8962 H         1 <0>         0.0719 
      43 H14       -0.6604    2.6210    5.2817 H         1 <0>         0.0706 
      44 H15       -1.5182    1.6211    7.3557 H         1 <0>         0.0792 
      45 H16        0.1974    1.2063    7.1493 H         1 <0>         0.0805 
      46 H17       -3.2752   -0.0926    7.0713 H         1 <0>         0.1321 
      47 H18       -3.8418   -2.4947    7.0647 H         1 <0>         0.1348 
      48 H19        0.2994   -3.4862    6.6104 H         1 <0>         0.1285 
      49 H20        0.8820   -1.0931    6.5701 H         1 <0>         0.1266 
      50 H21       -0.2742   -5.3151    7.1505 H         1 <0>         0.0957 
      51 H22       -1.6574   -6.3851    7.4669 H         1 <0>         0.0953 
      52 H23       -2.2772   -4.9720   10.7737 H         1 <0>         0.4036 
      53 H24       -3.1106   -5.6940    9.4151 H         1 <0>         0.4104 
@<TRIPOS>BOND
       1        1        2 1        
       2        1       30 1        
       3        1       31 1        
       4        1       32 1        
       5        2        3 2        
       6        2        4 am       
       7        4        5 1        
       8        4       33 1        
       9        5       10 ar       
      10        5        6 ar       
      11        6        7 ar       
      12        6       34 1        
      13        7        8 ar       
      14        7       35 1        
      15        8        9 ar       
      16        8       13 1        
      17        9       10 ar       
      18        9       36 1        
      19       10       11 1        
      20       11       12 1        
      21       12       37 1        
      22       12       38 1        
      23       12       39 1        
      24       13       14 am       
      25       13       40 1        
      26       14       15 2        
      27       14       16 am       
      28       16       17 1        
      29       16       41 1        
      30       17       18 1        
      31       17       42 1        
      32       17       43 1        
      33       18       19 1        
      34       18       44 1        
      35       18       45 1        
      36       19       24 ar       
      37       19       20 ar       
      38       20       21 ar       
      39       20       46 1        
      40       21       22 ar       
      41       21       47 1        
      42       22       23 ar       
      43       22       25 1        
      44       23       24 ar       
      45       23       48 1        
      46       24       49 1        
      47       25       26 1        
      48       26       27 1        
      49       26       50 1        
      50       26       51 1        
      51       27       28 2        
      52       27       29 am       
      53       29       52 1        
      54       29       53 1        

