#        1GCZ_R01_S0001_C0000_L00015_S0001_C0047_G0010_E0001.mol2
#        Tue Jun  6 14:17:47 2017
#        Descriptor:      2    17    14    14     8    13
#        Energy - RMSD - RMSD MassCentre:     -52.7065    999.9999    999.9999
#        Receptor:       1  Surface Point:     1  Conformer:     0
#        Ligand:        15  Surface Point:     1  Conformer:    47
#        BUDE Formal Charge: 0
#        ATOM Count: 53
#        Heavy ATOM Count: 29
@<TRIPOS>MOLECULE
ZINC61646583_1GCZ_R01_S0001_C0000_L00015_S0001_C0047_G0010_E0001
 53 54 0 0 0
SMALL
USER_CHARGES
@<TRIPOS>ATOM
       1 C1        -2.1871    1.1219    7.2043 C.3       1 <0>        -0.1727 
       2 C2        -0.9511    0.3919    6.7358 C.2       1 <0>         0.5094 
       3 O1        -1.0529   -0.7107    6.2002 O.2       1 <0>        -0.5291 
       4 N1         0.2485    0.9414    6.9025 N.am      1 <0>        -0.6649 
       5 C3         1.4067    0.2574    6.4636 C.ar      1 <0>         0.0992 
       6 C4         1.3289   -0.9958    5.8391 C.ar      1 <0>        -0.0654 
       7 C5         2.4989   -1.6979    5.5259 C.ar      1 <0>        -0.1341 
       8 C6         3.7504   -1.1011    5.7194 C.ar      1 <0>         0.1883 
       9 C7         3.8203    0.1617    6.3196 C.ar      1 <0>        -0.2193 
      10 C8         2.6551    0.8620    6.6534 C.ar      1 <0>         0.1218 
      11 O2         2.6672    2.1267    7.1800 O.3       1 <0>        -0.3161 
      12 C9         3.6056    3.0656    6.6485 C.3       1 <0>         0.0284 
      13 N2         4.9184   -1.7661    5.2772 N.am      1 <0>        -0.6855 
      14 C10        4.8247   -2.9516    4.6816 C.2       1 <0>         0.7035 
      15 O3         3.7039   -3.4786    4.5122 O.2       1 <0>        -0.5662 
      16 N3         5.9235   -3.5756    4.2664 N.am      1 <0>        -0.7422 
      17 C11        7.2406   -2.9545    4.4662 C.3       1 <0>         0.1412 
      18 C12        7.3095   -1.6449    3.6819 C.3       1 <0>        -0.0858 
      19 C13        8.6626   -1.0068    3.8872 C.ar      1 <0>        -0.1209 
      20 C14        8.8756   -0.1143    4.9446 C.ar      1 <0>        -0.0699 
      21 C15       10.1395    0.4494    5.1572 C.ar      1 <0>        -0.1435 
      22 C16       11.1958    0.1461    4.2957 C.ar      1 <0>         0.1285 
      23 C17       10.9849   -0.7292    3.2236 C.ar      1 <0>        -0.2085 
      24 C18        9.7241   -1.3045    3.0243 C.ar      1 <0>        -0.0706 
      25 O4        12.4302    0.7025    4.5036 O.3       1 <0>        -0.2897 
      26 C19       13.1690    1.1423    3.3608 C.3       1 <0>         0.0392 
      27 C20       12.3872    2.2135    2.6389 C.2       1 <0>         0.5189 
      28 O5        11.8234    1.9529    1.5771 O.2       1 <0>        -0.5163 
      29 N4        12.3084    3.4383    3.1516 N.am      1 <0>        -0.8501 
      30 H1        -1.9031    2.0896    7.6124 H         1 <0>         0.0965 
      31 H2        -2.8627    1.2662    6.3637 H         1 <0>         0.0914 
      32 H3        -2.6845    0.5350    7.9734 H         1 <0>         0.0912 
      33 H4         0.3333    1.8466    7.3423 H         1 <0>         0.4136 
      34 H5         0.3756   -1.4369    5.5886 H         1 <0>         0.1501 
      35 H6         2.4365   -2.6971    5.1209 H         1 <0>         0.1469 
      36 H7         4.8057    0.5735    6.4800 H         1 <0>         0.1349 
      37 H8         3.4093    3.2132    5.5885 H         1 <0>         0.1017 
      38 H9         3.5050    4.0140    7.1721 H         1 <0>         0.0561 
      39 H10        4.6153    2.6828    6.7812 H         1 <0>         0.0561 
      40 H11        5.8240   -1.3404    5.4141 H         1 <0>         0.4065 
      41 H12        5.8522   -4.4757    3.8140 H         1 <0>         0.3980 
      42 H13        8.0168   -3.6304    4.1136 H         1 <0>         0.0719 
      43 H14        7.3887   -2.7521    5.5249 H         1 <0>         0.0706 
      44 H15        6.5323   -0.9702    4.0350 H         1 <0>         0.0792 
      45 H16        7.1606   -1.8485    2.6237 H         1 <0>         0.0805 
      46 H17        8.0691    0.1503    5.6122 H         1 <0>         0.1321 
      47 H18       10.3055    1.1263    5.9822 H         1 <0>         0.1348 
      48 H19       11.8003   -0.9605    2.5542 H         1 <0>         0.1285 
      49 H20        9.5873   -1.9802    2.1930 H         1 <0>         0.1266 
      50 H21       13.3353    0.3007    2.6916 H         1 <0>         0.0957 
      51 H22       14.1268    1.5458    3.6822 H         1 <0>         0.0953 
      52 H23       12.7716    3.6511    4.0235 H         1 <0>         0.4036 
      53 H24       11.7853    4.1548    2.6688 H         1 <0>         0.4104 
@<TRIPOS>BOND
       1        1        2 1        
       2        1       30 1        
       3        1       31 1        
       4        1       32 1        
       5        2        3 2        
       6        2        4 am       
       7        4        5 1        
       8        4       33 1        
       9        5       10 ar       
      10        5        6 ar       
      11        6        7 ar       
      12        6       34 1        
      13        7        8 ar       
      14        7       35 1        
      15        8        9 ar       
      16        8       13 1        
      17        9       10 ar       
      18        9       36 1        
      19       10       11 1        
      20       11       12 1        
      21       12       37 1        
      22       12       38 1        
      23       12       39 1        
      24       13       14 am       
      25       13       40 1        
      26       14       15 2        
      27       14       16 am       
      28       16       17 1        
      29       16       41 1        
      30       17       18 1        
      31       17       42 1        
      32       17       43 1        
      33       18       19 1        
      34       18       44 1        
      35       18       45 1        
      36       19       24 ar       
      37       19       20 ar       
      38       20       21 ar       
      39       20       46 1        
      40       21       22 ar       
      41       21       47 1        
      42       22       23 ar       
      43       22       25 1        
      44       23       24 ar       
      45       23       48 1        
      46       24       49 1        
      47       25       26 1        
      48       26       27 1        
      49       26       50 1        
      50       26       51 1        
      51       27       28 2        
      52       27       29 am       
      53       29       52 1        
      54       29       53 1        

