#        1GCZ_R01_S0001_C0000_L00015_S0001_C0048_G0010_E0001.mol2
#        Tue Jun  6 10:00:45 2017
#        Descriptor:     17    21     5    12     6    15
#        Energy - RMSD - RMSD MassCentre:     -52.4640    999.9999    999.9999
#        Receptor:       1  Surface Point:     1  Conformer:     0
#        Ligand:        15  Surface Point:     1  Conformer:    48
#        BUDE Formal Charge: 0
#        ATOM Count: 53
#        Heavy ATOM Count: 29
@<TRIPOS>MOLECULE
ZINC61646583_1GCZ_R01_S0001_C0000_L00015_S0001_C0048_G0010_E0001
 53 54 0 0 0
SMALL
USER_CHARGES
@<TRIPOS>ATOM
       1 C1        10.8947    2.9177    5.8065 C.3       1 <0>        -0.1727 
       2 C2        10.0439    1.6705    5.7822 C.2       1 <0>         0.5094 
       3 O1        10.5666    0.5718    5.6018 O.2       1 <0>        -0.5291 
       4 N1         8.7283    1.7600    5.9559 N.am      1 <0>        -0.6649 
       5 C3         7.9311    0.5914    5.9331 C.ar      1 <0>         0.0992 
       6 C4         8.4927   -0.6791    5.7410 C.ar      1 <0>        -0.0654 
       7 C5         7.6646   -1.7995    5.6043 C.ar      1 <0>        -0.1341 
       8 C6         6.2814   -1.6775    5.7826 C.ar      1 <0>         0.1883 
       9 C7         5.7291   -0.4097    6.0001 C.ar      1 <0>        -0.2193 
      10 C8         6.5492    0.7185    6.1189 C.ar      1 <0>         0.1218 
      11 O2         6.0652    1.9693    6.3981 O.3       1 <0>        -0.3161 
      12 C9         5.0204    2.0832    7.3677 C.3       1 <0>         0.0284 
      13 N2         5.4700   -2.8367    5.7732 N.am      1 <0>        -0.6855 
      14 C10        6.0212   -4.0340    5.5955 C.2       1 <0>         0.7035 
      15 O3         7.2570   -4.1353    5.4369 O.2       1 <0>        -0.5662 
      16 N3         5.2572   -5.1228    5.5870 N.am      1 <0>        -0.7422 
      17 C11        3.8043   -5.0019    5.7739 C.3       1 <0>         0.1412 
      18 C12        3.5159   -4.4285    7.1606 C.3       1 <0>        -0.0858 
      19 C13        2.0233   -4.3043    7.3526 C.ar      1 <0>        -0.1209 
      20 C14        1.3534   -3.1316    6.9838 C.ar      1 <0>        -0.0699 
      21 C15       -0.0356   -3.0296    7.1276 C.ar      1 <0>        -0.1435 
      22 C16       -0.7638   -4.0913    7.6685 C.ar      1 <0>         0.1285 
      23 C17       -0.0979   -5.2592    8.0591 C.ar      1 <0>        -0.2085 
      24 C18        1.2889   -5.3642    7.8977 C.ar      1 <0>        -0.0706 
      25 O4        -2.1222   -3.9869    7.8121 O.3       1 <0>        -0.2897 
      26 C19       -2.7129   -4.5110    9.0043 C.3       1 <0>         0.0392 
      27 C20       -2.1484   -3.7889   10.2042 C.2       1 <0>         0.5189 
      28 O5        -1.3331   -4.3520   10.9330 O.2       1 <0>        -0.5163 
      29 N4        -2.5331   -2.5442   10.4723 N.am      1 <0>        -0.8501 
      30 H1        10.2663    3.7807    6.0162 H         1 <0>         0.0965 
      31 H2        11.6529    2.8236    6.5812 H         1 <0>         0.0914 
      32 H3        11.3772    3.0457    4.8399 H         1 <0>         0.0912 
      33 H4         8.2981    2.6616    6.1039 H         1 <0>         0.4136 
      34 H5         9.5631   -0.8160    5.6980 H         1 <0>         0.1501 
      35 H6         8.0943   -2.7633    5.3745 H         1 <0>         0.1469 
      36 H7         4.6552   -0.3543    6.1010 H         1 <0>         0.1349 
      37 H8         5.3730    1.7068    8.3257 H         1 <0>         0.1017 
      38 H9         4.7343    3.1278    7.4708 H         1 <0>         0.0561 
      39 H10        4.1603    1.5014    7.0430 H         1 <0>         0.0561 
      40 H11        4.4715   -2.7549    5.9014 H         1 <0>         0.4065 
      41 H12        5.6759   -6.0319    5.4523 H         1 <0>         0.3980 
      42 H13        3.3448   -5.9840    5.6841 H         1 <0>         0.0719 
      43 H14        3.3954   -4.3387    5.0144 H         1 <0>         0.0706 
      44 H15        3.9766   -3.4468    7.2493 H         1 <0>         0.0792 
      45 H16        3.9258   -5.0921    7.9190 H         1 <0>         0.0805 
      46 H17        1.8978   -2.2903    6.5814 H         1 <0>         0.1321 
      47 H18       -0.5524   -2.1296    6.8289 H         1 <0>         0.1348 
      48 H19       -0.6600   -6.0788    8.4819 H         1 <0>         0.1285 
      49 H20        1.7794   -6.2769    8.2024 H         1 <0>         0.1266 
      50 H21       -2.4903   -5.5732    9.0817 H         1 <0>         0.0957 
      51 H22       -3.7907   -4.3673    8.9677 H         1 <0>         0.0953 
      52 H23       -2.1556   -2.0611   11.2749 H         1 <0>         0.4036 
      53 H24       -3.2027   -2.0828    9.8733 H         1 <0>         0.4104 
@<TRIPOS>BOND
       1        1        2 1        
       2        1       30 1        
       3        1       31 1        
       4        1       32 1        
       5        2        3 2        
       6        2        4 am       
       7        4        5 1        
       8        4       33 1        
       9        5       10 ar       
      10        5        6 ar       
      11        6        7 ar       
      12        6       34 1        
      13        7        8 ar       
      14        7       35 1        
      15        8        9 ar       
      16        8       13 1        
      17        9       10 ar       
      18        9       36 1        
      19       10       11 1        
      20       11       12 1        
      21       12       37 1        
      22       12       38 1        
      23       12       39 1        
      24       13       14 am       
      25       13       40 1        
      26       14       15 2        
      27       14       16 am       
      28       16       17 1        
      29       16       41 1        
      30       17       18 1        
      31       17       42 1        
      32       17       43 1        
      33       18       19 1        
      34       18       44 1        
      35       18       45 1        
      36       19       24 ar       
      37       19       20 ar       
      38       20       21 ar       
      39       20       46 1        
      40       21       22 ar       
      41       21       47 1        
      42       22       23 ar       
      43       22       25 1        
      44       23       24 ar       
      45       23       48 1        
      46       24       49 1        
      47       25       26 1        
      48       26       27 1        
      49       26       50 1        
      50       26       51 1        
      51       27       28 2        
      52       27       29 am       
      53       29       52 1        
      54       29       53 1        

