#        1GCZ_R01_S0001_C0000_L00003_S0001_C0033_G0010_E0001.mol2
#        Tue Jun  6 09:55:04 2017
#        Descriptor:     10    26    21    10     8    11
#        Energy - RMSD - RMSD MassCentre:     -87.3100    999.9999    999.9999
#        Receptor:       1  Surface Point:     1  Conformer:     0
#        Ligand:         3  Surface Point:     1  Conformer:    33
#        BUDE Formal Charge: 0
#        ATOM Count: 58
#        Heavy ATOM Count: 30
@<TRIPOS>MOLECULE
ZINC61580633_1GCZ_R01_S0001_C0000_L00003_S0001_C0033_G0010_E0001
 58 59 0 0 0
SMALL
USER_CHARGES
@<TRIPOS>ATOM
       1 C1        -0.4651   -0.5056   -4.0864 C.3       1 <0>        -0.1532 
       2 C2        -0.7509   -0.1188   -2.6382 C.3       1 <0>        -0.1224 
       3 C3        -0.0257   -1.0840   -1.7015 C.3       1 <0>        -0.1198 
       4 C4        -0.3119   -0.6966   -0.2513 C.3       1 <0>         0.0610 
       5 O1         0.2122    0.6090    0.0047 O.3       1 <0>        -0.3878 
       6 C5        -0.0269    1.0264    1.3515 C.3       1 <0>         0.0487 
       7 C6        -1.5320    1.0731    1.6098 C.3       1 <0>         0.1244 
       8 N1        -1.7777    1.5021    2.9941 N.am      1 <0>        -0.7216 
       9 C7        -1.5139    0.6761    4.0026 C.2       1 <0>         0.5161 
      10 O2        -1.0644   -0.4464    3.7777 O.2       1 <0>        -0.5151 
      11 C8        -1.7662    1.1169    5.4246 C.3       1 <0>         0.0490 
      12 O3        -0.8202    2.1269    5.7847 O.3       1 <0>        -0.3194 
      13 C9         0.4876    1.7923    5.8022 C.2       1 <0>         0.5417 
      14 O4         0.8315    0.6572    5.5164 O.2       1 <0>        -0.5337 
      15 C10        1.5047    2.8030    6.1684 C.2       1 <0>        -0.2559 
      16 C11        1.1992    4.2082    6.5183 C.2       1 <0>        -0.0791 
      17 C12        2.2980    4.9139    6.7954 C.2       1 <0>        -0.2585 
      18 S1         3.7779    3.9520    6.6652 S.3       1 <0>         0.3028 
      19 C13        2.8176    2.5380    6.2057 C.2       1 <0>         0.0893 
      20 N2         3.3208    1.2998    5.9046 N.am      1 <0>        -0.6099 
      21 C14        4.6322    1.0836    5.9552 C.2       1 <0>         0.5551 
      22 O5         5.3937    1.9959    6.2727 O.2       1 <0>        -0.4939 
      23 C15        5.1741   -0.2545    5.6297 C.ar      1 <0>        -0.1466 
      24 C16        6.5608   -0.4370    5.6927 C.ar      1 <0>        -0.0772 
      25 C17        7.1384   -1.6581    5.3253 C.ar      1 <0>        -0.1241 
      26 C18        6.3401   -2.7172    4.8778 C.ar      1 <0>        -0.0446 
      27 C19        4.9495   -2.5553    4.8643 C.ar      1 <0>        -0.1261 
      28 C20        4.3738   -1.3422    5.2604 C.ar      1 <0>        -0.0460 
      29 C21        6.9871   -4.0051    4.4271 C.3       1 <0>        -0.0928 
      30 C22        7.2765   -3.9314    2.9307 C.3       1 <0>        -0.1485 
      31 H1        -0.8284   -1.5146   -4.2700 H         1 <0>         0.0567 
      32 H2         0.6071   -0.4673   -4.2663 H         1 <0>         0.0554 
      33 H3        -0.9705    0.1897   -4.7532 H         1 <0>         0.0557 
      34 H4        -0.3993    0.8947   -2.4566 H         1 <0>         0.0632 
      35 H5        -1.8218   -0.1704   -2.4528 H         1 <0>         0.0635 
      36 H6        -0.3770   -2.0977   -1.8815 H         1 <0>         0.0711 
      37 H7         1.0454   -1.0326   -1.8852 H         1 <0>         0.0704 
      38 H8        -1.3865   -0.6952   -0.0809 H         1 <0>         0.0498 
      39 H9         0.1609   -1.4138    0.4163 H         1 <0>         0.0505 
      40 H10        0.3977    2.0161    1.5059 H         1 <0>         0.0584 
      41 H11        0.4367    0.3211    2.0382 H         1 <0>         0.0702 
      42 H12       -1.9577    0.0836    1.4565 H         1 <0>         0.0872 
      43 H13       -1.9965    1.7786    0.9243 H         1 <0>         0.0805 
      44 H14       -2.1467    2.4237    3.1800 H         1 <0>         0.4058 
      45 H15       -2.7738    1.5189    5.5071 H         1 <0>         0.1008 
      46 H16       -1.6588    0.2654    6.0933 H         1 <0>         0.0999 
      47 H17        0.1913    4.5947    6.5513 H         1 <0>         0.1557 
      48 H18        2.2685    5.9552    7.0800 H         1 <0>         0.1929 
      49 H19        2.6956    0.5507    5.6440 H         1 <0>         0.4317 
      50 H20        7.1941    0.3727    6.0237 H         1 <0>         0.1287 
      51 H21        8.2088   -1.7892    5.3840 H         1 <0>         0.1326 
      52 H22        4.3279   -3.3800    4.5482 H         1 <0>         0.1342 
      53 H23        3.2951   -1.2956    5.2858 H         1 <0>         0.1410 
      54 H24        6.3149   -4.8370    4.6266 H         1 <0>         0.0777 
      55 H25        7.9181   -4.1520    4.9705 H         1 <0>         0.0771 
      56 H26        7.9586   -3.1069    2.7341 H         1 <0>         0.0623 
      57 H27        6.3465   -3.7703    2.3895 H         1 <0>         0.0572 
      58 H28        7.7305   -4.8644    2.6035 H         1 <0>         0.0578 
@<TRIPOS>BOND
       1        1        2 1        
       2        1       31 1        
       3        1       32 1        
       4        1       33 1        
       5        2        3 1        
       6        2       34 1        
       7        2       35 1        
       8        3        4 1        
       9        3       36 1        
      10        3       37 1        
      11        4        5 1        
      12        4       38 1        
      13        4       39 1        
      14        5        6 1        
      15        6        7 1        
      16        6       40 1        
      17        6       41 1        
      18        7        8 1        
      19        7       42 1        
      20        7       43 1        
      21        8        9 am       
      22        8       44 1        
      23        9       10 2        
      24        9       11 1        
      25       11       12 1        
      26       11       45 1        
      27       11       46 1        
      28       12       13 1        
      29       13       14 2        
      30       13       15 1        
      31       15       19 2        
      32       15       16 1        
      33       16       17 2        
      34       16       47 1        
      35       17       18 1        
      36       17       48 1        
      37       18       19 1        
      38       19       20 1        
      39       20       21 am       
      40       20       49 1        
      41       21       22 2        
      42       21       23 1        
      43       23       28 ar       
      44       23       24 ar       
      45       24       25 ar       
      46       24       50 1        
      47       25       26 ar       
      48       25       51 1        
      49       26       27 ar       
      50       26       29 1        
      51       27       28 ar       
      52       27       52 1        
      53       28       53 1        
      54       29       30 1        
      55       29       54 1        
      56       29       55 1        
      57       30       56 1        
      58       30       57 1        
      59       30       58 1        

