#        1GCZ_R01_S0001_C0000_L00015_S0001_C0049_G0010_E0001.mol2
#        Tue Jun  6 10:00:46 2017
#        Descriptor:     31    21     1     9     8    13
#        Energy - RMSD - RMSD MassCentre:     -68.4248    999.9999    999.9999
#        Receptor:       1  Surface Point:     1  Conformer:     0
#        Ligand:        15  Surface Point:     1  Conformer:    49
#        BUDE Formal Charge: 0
#        ATOM Count: 53
#        Heavy ATOM Count: 29
@<TRIPOS>MOLECULE
ZINC61646583_1GCZ_R01_S0001_C0000_L00015_S0001_C0049_G0010_E0001
 53 54 0 0 0
SMALL
USER_CHARGES
@<TRIPOS>ATOM
       1 C1         4.3582   -0.9980   12.9965 C.3       1 <0>        -0.1727 
       2 C2         3.3648   -0.5800   11.9390 C.2       1 <0>         0.5094 
       3 O1         2.4425    0.1813   12.2269 O.2       1 <0>        -0.5291 
       4 N1         3.4869   -1.0354   10.6954 N.am      1 <0>        -0.6649 
       5 C3         2.5560   -0.6437    9.7045 C.ar      1 <0>         0.0992 
       6 C4         1.4985    0.2310    9.9927 C.ar      1 <0>        -0.0654 
       7 C5         0.5277    0.5030    9.0214 C.ar      1 <0>        -0.1341 
       8 C6         0.6744    0.0042    7.7216 C.ar      1 <0>         0.1883 
       9 C7         1.7470   -0.8478    7.4331 C.ar      1 <0>        -0.2193 
      10 C8         2.7114   -1.1401    8.4047 C.ar      1 <0>         0.1218 
      11 O2         3.8149   -1.9128    8.1549 O.3       1 <0>        -0.3161 
      12 C9         4.4900   -1.7344    6.9071 C.3       1 <0>         0.0284 
      13 N2        -0.2413    0.3935    6.7155 N.am      1 <0>        -0.6855 
      14 C10       -1.2347    1.2287    7.0062 C.2       1 <0>         0.7035 
      15 O3        -1.3594    1.6702    8.1690 O.2       1 <0>        -0.5662 
      16 N3        -2.0945    1.5939    6.0595 N.am      1 <0>        -0.7422 
      17 C11       -1.9463    1.0740    4.6926 C.3       1 <0>         0.1412 
      18 C12       -0.6172    1.5508    4.1085 C.3       1 <0>        -0.0858 
      19 C13       -0.4650    1.0168    2.7044 C.ar      1 <0>        -0.1209 
      20 C14        0.1459   -0.2221    2.4765 C.ar      1 <0>        -0.0699 
      21 C15        0.2546   -0.7345    1.1780 C.ar      1 <0>        -0.1435 
      22 C16       -0.2227    0.0022    0.0919 C.ar      1 <0>         0.1285 
      23 C17       -0.8157    1.2515    0.3101 C.ar      1 <0>        -0.2085 
      24 C18       -0.9383    1.7528    1.6116 C.ar      1 <0>        -0.0706 
      25 O4        -0.1110   -0.4997   -1.1779 O.3       1 <0>        -0.2897 
      26 C19        0.2503    0.4029   -2.2266 C.3       1 <0>         0.0392 
      27 C20        0.3177   -0.3480   -3.5347 C.2       1 <0>         0.5189 
      28 O5        -0.5732   -0.2069   -4.3711 O.2       1 <0>        -0.5163 
      29 N4         1.3405   -1.1616   -3.7822 N.am      1 <0>        -0.8501 
      30 H1         5.1174   -1.6354   12.5483 H         1 <0>         0.0965 
      31 H2         4.8301   -0.1135   13.4197 H         1 <0>         0.0914 
      32 H3         3.8418   -1.5451   13.7823 H         1 <0>         0.0912 
      33 H4         4.2437   -1.6605   10.4580 H         1 <0>         0.4136 
      34 H5         1.4154    0.7079   10.9581 H         1 <0>         0.1501 
      35 H6        -0.3295    1.1107    9.2707 H         1 <0>         0.1469 
      36 H7         1.8065   -1.2365    6.4272 H         1 <0>         0.1349 
      37 H8         4.8514   -0.7108    6.8340 H         1 <0>         0.1017 
      38 H9         5.3314   -2.4217    6.8491 H         1 <0>         0.0561 
      39 H10        3.8000   -1.9354    6.0902 H         1 <0>         0.0561 
      40 H11       -0.1405    0.0369    5.7760 H         1 <0>         0.4065 
      41 H12       -2.8488    2.2282    6.2802 H         1 <0>         0.3980 
      42 H13       -2.7655    1.4380    4.0760 H         1 <0>         0.0719 
      43 H14       -1.9639   -0.0136    4.7149 H         1 <0>         0.0706 
      44 H15        0.2010    1.1869    4.7265 H         1 <0>         0.0792 
      45 H16       -0.6006    2.6384    4.0874 H         1 <0>         0.0805 
      46 H17        0.5398   -0.8010    3.2987 H         1 <0>         0.1321 
      47 H18        0.7129   -1.6971    1.0057 H         1 <0>         0.1348 
      48 H19       -1.1807    1.8237   -0.5299 H         1 <0>         0.1285 
      49 H20       -1.4035    2.7169    1.7549 H         1 <0>         0.1266 
      50 H21        1.2221    0.8408   -2.0085 H         1 <0>         0.0957 
      51 H22       -0.4958    1.1916   -2.2984 H         1 <0>         0.0953 
      52 H23        1.3856   -1.6638   -4.6573 H         1 <0>         0.4036 
      53 H24        2.0714   -1.2767   -3.0947 H         1 <0>         0.4104 
@<TRIPOS>BOND
       1        1        2 1        
       2        1       30 1        
       3        1       31 1        
       4        1       32 1        
       5        2        3 2        
       6        2        4 am       
       7        4        5 1        
       8        4       33 1        
       9        5       10 ar       
      10        5        6 ar       
      11        6        7 ar       
      12        6       34 1        
      13        7        8 ar       
      14        7       35 1        
      15        8        9 ar       
      16        8       13 1        
      17        9       10 ar       
      18        9       36 1        
      19       10       11 1        
      20       11       12 1        
      21       12       37 1        
      22       12       38 1        
      23       12       39 1        
      24       13       14 am       
      25       13       40 1        
      26       14       15 2        
      27       14       16 am       
      28       16       17 1        
      29       16       41 1        
      30       17       18 1        
      31       17       42 1        
      32       17       43 1        
      33       18       19 1        
      34       18       44 1        
      35       18       45 1        
      36       19       24 ar       
      37       19       20 ar       
      38       20       21 ar       
      39       20       46 1        
      40       21       22 ar       
      41       21       47 1        
      42       22       23 ar       
      43       22       25 1        
      44       23       24 ar       
      45       23       48 1        
      46       24       49 1        
      47       25       26 1        
      48       26       27 1        
      49       26       50 1        
      50       26       51 1        
      51       27       28 2        
      52       27       29 am       
      53       29       52 1        
      54       29       53 1        

