#        1GCZ_R01_S0001_C0000_L00015_S0001_C0049_G0010_E0001.mol2
#        Tue Jun  6 14:17:51 2017
#        Descriptor:     12    34    22    10     9    13
#        Energy - RMSD - RMSD MassCentre:     -63.6724    999.9999    999.9999
#        Receptor:       1  Surface Point:     1  Conformer:     0
#        Ligand:        15  Surface Point:     1  Conformer:    49
#        BUDE Formal Charge: 0
#        ATOM Count: 53
#        Heavy ATOM Count: 29
@<TRIPOS>MOLECULE
ZINC61646583_1GCZ_R01_S0001_C0000_L00015_S0001_C0049_G0010_E0001
 53 54 0 0 0
SMALL
USER_CHARGES
@<TRIPOS>ATOM
       1 C1         7.1099    2.0599   11.9988 C.3       1 <0>        -0.1727 
       2 C2         5.8360    1.8470   11.2165 C.2       1 <0>         0.5094 
       3 O1         4.7452    1.9569   11.7742 O.2       1 <0>        -0.5291 
       4 N1         5.8935    1.5402    9.9237 N.am      1 <0>        -0.6649 
       5 C3         4.6999    1.3405    9.1907 C.ar      1 <0>         0.0992 
       6 C4         3.4383    1.4681    9.7897 C.ar      1 <0>        -0.0654 
       7 C5         2.2826    1.1472    9.0677 C.ar      1 <0>        -0.1341 
       8 C6         2.3704    0.8183    7.7098 C.ar      1 <0>         0.1883 
       9 C7         3.6317    0.7180    7.1107 C.ar      1 <0>        -0.2193 
      10 C8         4.7934    1.0186    7.8314 C.ar      1 <0>         0.1218 
      11 O2         6.0450    1.0013    7.2745 O.3       1 <0>        -0.3161 
      12 C9         6.1992    1.5296    5.9548 C.3       1 <0>         0.0284 
      13 N2         1.1868    0.6254    6.9588 N.am      1 <0>        -0.6855 
      14 C10       -0.0010    0.7563    7.5426 C.2       1 <0>         0.7035 
      15 O3        -0.0718    1.0502    8.7556 O.2       1 <0>        -0.5662 
      16 N3        -1.1128    0.5748    6.8355 N.am      1 <0>        -0.7422 
      17 C11       -1.0278    0.2295    5.4092 C.3       1 <0>         0.1412 
      18 C12       -0.3565    1.3721    4.6485 C.3       1 <0>        -0.0858 
      19 C13       -0.2692    1.0174    3.1834 C.ar      1 <0>        -0.1209 
      20 C14        0.8467    0.3374    2.6810 C.ar      1 <0>        -0.0699 
      21 C15        0.9117   -0.0241    1.3299 C.ar      1 <0>        -0.1435 
      22 C16       -0.1283    0.3169    0.4626 C.ar      1 <0>         0.1285 
      23 C17       -1.2378    1.0156    0.9535 C.ar      1 <0>        -0.2085 
      24 C18       -1.3073    1.3600    2.3088 C.ar      1 <0>        -0.0706 
      25 O4        -0.0599   -0.0341   -0.8598 O.3       1 <0>        -0.2897 
      26 C19       -0.5079    0.9160   -1.8302 C.3       1 <0>         0.0392 
      27 C20       -0.3478    0.3342   -3.2142 C.2       1 <0>         0.5189 
      28 O5        -1.3361   -0.0501   -3.8376 O.2       1 <0>        -0.5163 
      29 N4         0.8619    0.2376   -3.7587 N.am      1 <0>        -0.8501 
      30 H1         7.9645    1.9607   11.3330 H         1 <0>         0.0965 
      31 H2         7.1038    3.0563   12.4361 H         1 <0>         0.0914 
      32 H3         7.1774    1.3165   12.7901 H         1 <0>         0.0912 
      33 H4         6.7886    1.4496    9.4649 H         1 <0>         0.4136 
      34 H5         3.3355    1.8149   10.8073 H         1 <0>         0.1501 
      35 H6         1.3191    1.1667    9.5551 H         1 <0>         0.1469 
      36 H7         3.6577    0.4310    6.0698 H         1 <0>         0.1349 
      37 H8         5.9124    2.5792    5.9491 H         1 <0>         0.1017 
      38 H9         7.2382    1.4352    5.6460 H         1 <0>         0.0561 
      39 H10        5.5641    0.9757    5.2666 H         1 <0>         0.0561 
      40 H11        1.2440    0.3880    5.9788 H         1 <0>         0.4065 
      41 H12       -2.0148    0.6744    7.2788 H         1 <0>         0.3980 
      42 H13       -2.0292    0.0696    5.0151 H         1 <0>         0.0719 
      43 H14       -0.4415   -0.6794    5.2910 H         1 <0>         0.0706 
      44 H15        0.6444    1.5315    5.0441 H         1 <0>         0.0792 
      45 H16       -0.9433    2.2804    4.7681 H         1 <0>         0.0805 
      46 H17        1.6718    0.0801    3.3285 H         1 <0>         0.1321 
      47 H18        1.7668   -0.5616    0.9473 H         1 <0>         0.1348 
      48 H19       -2.0402    1.2836    0.2822 H         1 <0>         0.1285 
      49 H20       -2.1754    1.8950    2.6646 H         1 <0>         0.1266 
      50 H21        0.0845    1.8248   -1.7473 H         1 <0>         0.0957 
      51 H22       -1.5560    1.1480   -1.6526 H         1 <0>         0.0953 
      52 H23        0.9690   -0.1515   -4.6846 H         1 <0>         0.4036 
      53 H24        1.6727    0.5534   -3.2459 H         1 <0>         0.4104 
@<TRIPOS>BOND
       1        1        2 1        
       2        1       30 1        
       3        1       31 1        
       4        1       32 1        
       5        2        3 2        
       6        2        4 am       
       7        4        5 1        
       8        4       33 1        
       9        5       10 ar       
      10        5        6 ar       
      11        6        7 ar       
      12        6       34 1        
      13        7        8 ar       
      14        7       35 1        
      15        8        9 ar       
      16        8       13 1        
      17        9       10 ar       
      18        9       36 1        
      19       10       11 1        
      20       11       12 1        
      21       12       37 1        
      22       12       38 1        
      23       12       39 1        
      24       13       14 am       
      25       13       40 1        
      26       14       15 2        
      27       14       16 am       
      28       16       17 1        
      29       16       41 1        
      30       17       18 1        
      31       17       42 1        
      32       17       43 1        
      33       18       19 1        
      34       18       44 1        
      35       18       45 1        
      36       19       24 ar       
      37       19       20 ar       
      38       20       21 ar       
      39       20       46 1        
      40       21       22 ar       
      41       21       47 1        
      42       22       23 ar       
      43       22       25 1        
      44       23       24 ar       
      45       23       48 1        
      46       24       49 1        
      47       25       26 1        
      48       26       27 1        
      49       26       50 1        
      50       26       51 1        
      51       27       28 2        
      52       27       29 am       
      53       29       52 1        
      54       29       53 1        

