#        1GCZ_R01_S0001_C0000_L00015_S0001_C0050_G0010_E0001.mol2
#        Tue Jun  6 10:00:47 2017
#        Descriptor:      5    33     2    12     8    14
#        Energy - RMSD - RMSD MassCentre:     -53.2507    999.9999    999.9999
#        Receptor:       1  Surface Point:     1  Conformer:     0
#        Ligand:        15  Surface Point:     1  Conformer:    50
#        BUDE Formal Charge: 0
#        ATOM Count: 53
#        Heavy ATOM Count: 29
@<TRIPOS>MOLECULE
ZINC61646583_1GCZ_R01_S0001_C0000_L00015_S0001_C0050_G0010_E0001
 53 54 0 0 0
SMALL
USER_CHARGES
@<TRIPOS>ATOM
       1 C1        -3.6476    3.1215    8.8264 C.3       1 <0>        -0.1727 
       2 C2        -2.1557    3.0713    8.5984 C.2       1 <0>         0.5094 
       3 O1        -1.4136    3.8412    9.2062 O.2       1 <0>        -0.5291 
       4 N1        -1.6438    2.1941    7.7397 N.am      1 <0>        -0.6649 
       5 C3        -0.2460    2.1471    7.5260 C.ar      1 <0>         0.0992 
       6 C4         0.6320    3.0013    8.2086 C.ar      1 <0>        -0.0654 
       7 C5         1.9943    3.0112    7.8864 C.ar      1 <0>        -0.1341 
       8 C6         2.5074    2.0834    6.9721 C.ar      1 <0>         0.1883 
       9 C7         1.6290    1.2153    6.3130 C.ar      1 <0>        -0.2193 
      10 C8         0.2623    1.2127    6.6157 C.ar      1 <0>         0.1218 
      11 O2        -0.6279    0.3389    6.0492 O.3       1 <0>        -0.3161 
      12 C9        -0.2154   -1.0189    5.8736 C.3       1 <0>         0.0284 
      13 N2         3.9038    2.0154    6.7537 N.am      1 <0>        -0.6855 
      14 C10        4.7217    2.8297    7.4147 C.2       1 <0>         0.7035 
      15 O3         4.2565    3.6556    8.2296 O.2       1 <0>        -0.5662 
      16 N3         6.0340    2.7645    7.2085 N.am      1 <0>        -0.7422 
      17 C11        6.5795    1.7926    6.2500 C.3       1 <0>         0.1412 
      18 C12        6.2677    0.3757    6.7296 C.3       1 <0>        -0.0858 
      19 C13        6.8280   -0.6227    5.7451 C.ar      1 <0>        -0.1209 
      20 C14        6.0557   -1.0681    4.6656 C.ar      1 <0>        -0.0699 
      21 C15        6.5873   -1.9658    3.7319 C.ar      1 <0>        -0.1435 
      22 C16        7.8888   -2.4480    3.8860 C.ar      1 <0>         0.1285 
      23 C17        8.6597   -2.0234    4.9747 C.ar      1 <0>        -0.2085 
      24 C18        8.1308   -1.1122    5.8968 C.ar      1 <0>        -0.0706 
      25 O4         8.4047   -3.3297    2.9732 O.3       1 <0>        -0.2897 
      26 C19        9.1988   -4.4138    3.4625 C.3       1 <0>         0.0392 
      27 C20        9.6650   -5.2590    2.3015 C.2       1 <0>         0.5189 
      28 O5        10.8357   -5.1993    1.9288 O.2       1 <0>        -0.5163 
      29 N4         8.8095   -6.0678    1.6825 N.am      1 <0>        -0.8501 
      30 H1        -4.1303    2.3456    8.2360 H         1 <0>         0.0965 
      31 H2        -3.8581    2.9591    9.8815 H         1 <0>         0.0914 
      32 H3        -4.0272    4.0957    8.5261 H         1 <0>         0.0912 
      33 H4        -2.2523    1.5616    7.2401 H         1 <0>         0.4136 
      34 H5         0.2780    3.6587    8.9890 H         1 <0>         0.1501 
      35 H6         2.6543    3.7266    8.3542 H         1 <0>         0.1469 
      36 H7         2.0605    0.5367    5.5921 H         1 <0>         0.1349 
      37 H8         0.0160   -1.4553    6.8430 H         1 <0>         0.1017 
      38 H9        -1.0181   -1.5832    5.4035 H         1 <0>         0.0561 
      39 H10        0.6690   -1.0496    5.2407 H         1 <0>         0.0561 
      40 H11        4.2797    1.3481    6.0954 H         1 <0>         0.4065 
      41 H12        6.6551    3.3827    7.7105 H         1 <0>         0.3980 
      42 H13        7.6572    1.9223    6.1766 H         1 <0>         0.0719 
      43 H14        6.1268    1.9536    5.2739 H         1 <0>         0.0706 
      44 H15        5.1897    0.2475    6.8034 H         1 <0>         0.0792 
      45 H16        6.7202    0.2163    7.7060 H         1 <0>         0.0805 
      46 H17        5.0402   -0.7241    4.5366 H         1 <0>         0.1321 
      47 H18        5.9949   -2.2969    2.8917 H         1 <0>         0.1348 
      48 H19        9.6647   -2.3996    5.0969 H         1 <0>         0.1285 
      49 H20        8.7464   -0.7961    6.7259 H         1 <0>         0.1266 
      50 H21        8.6027   -5.0226    4.1389 H         1 <0>         0.0957 
      51 H22       10.0621   -4.0189    3.9942 H         1 <0>         0.0953 
      52 H23        7.8485   -6.1161    1.9894 H         1 <0>         0.4036 
      53 H24        9.1214   -6.6333    0.9060 H         1 <0>         0.4104 
@<TRIPOS>BOND
       1        1        2 1        
       2        1       30 1        
       3        1       31 1        
       4        1       32 1        
       5        2        3 2        
       6        2        4 am       
       7        4        5 1        
       8        4       33 1        
       9        5       10 ar       
      10        5        6 ar       
      11        6        7 ar       
      12        6       34 1        
      13        7        8 ar       
      14        7       35 1        
      15        8        9 ar       
      16        8       13 1        
      17        9       10 ar       
      18        9       36 1        
      19       10       11 1        
      20       11       12 1        
      21       12       37 1        
      22       12       38 1        
      23       12       39 1        
      24       13       14 am       
      25       13       40 1        
      26       14       15 2        
      27       14       16 am       
      28       16       17 1        
      29       16       41 1        
      30       17       18 1        
      31       17       42 1        
      32       17       43 1        
      33       18       19 1        
      34       18       44 1        
      35       18       45 1        
      36       19       24 ar       
      37       19       20 ar       
      38       20       21 ar       
      39       20       46 1        
      40       21       22 ar       
      41       21       47 1        
      42       22       23 ar       
      43       22       25 1        
      44       23       24 ar       
      45       23       48 1        
      46       24       49 1        
      47       25       26 1        
      48       26       27 1        
      49       26       50 1        
      50       26       51 1        
      51       27       28 2        
      52       27       29 am       
      53       29       52 1        
      54       29       53 1        

