#        1GCZ_R01_S0001_C0000_L00015_S0001_C0050_G0010_E0001.mol2
#        Tue Jun  6 14:17:53 2017
#        Descriptor:     12    34    22    10     9    13
#        Energy - RMSD - RMSD MassCentre:     -63.6737    999.9999    999.9999
#        Receptor:       1  Surface Point:     1  Conformer:     0
#        Ligand:        15  Surface Point:     1  Conformer:    50
#        BUDE Formal Charge: 0
#        ATOM Count: 53
#        Heavy ATOM Count: 29
@<TRIPOS>MOLECULE
ZINC61646583_1GCZ_R01_S0001_C0000_L00015_S0001_C0050_G0010_E0001
 53 54 0 0 0
SMALL
USER_CHARGES
@<TRIPOS>ATOM
       1 C1         7.1097    2.0599   11.9989 C.3       1 <0>        -0.1727 
       2 C2         5.8359    1.8469   11.2166 C.2       1 <0>         0.5094 
       3 O1         4.7451    1.9568   11.7743 O.2       1 <0>        -0.5291 
       4 N1         5.8934    1.5401    9.9238 N.am      1 <0>        -0.6649 
       5 C3         4.6997    1.3405    9.1908 C.ar      1 <0>         0.0992 
       6 C4         3.4382    1.4680    9.7898 C.ar      1 <0>        -0.0654 
       7 C5         2.2825    1.1471    9.0678 C.ar      1 <0>        -0.1341 
       8 C6         2.3703    0.8182    7.7098 C.ar      1 <0>         0.1883 
       9 C7         3.6315    0.7180    7.1107 C.ar      1 <0>        -0.2193 
      10 C8         4.7933    1.0186    7.8315 C.ar      1 <0>         0.1218 
      11 O2         6.0449    1.0013    7.2746 O.3       1 <0>        -0.3161 
      12 C9         6.1991    1.5295    5.9548 C.3       1 <0>         0.0284 
      13 N2         1.1867    0.6253    6.9589 N.am      1 <0>        -0.6855 
      14 C10       -0.0012    0.7563    7.5427 C.2       1 <0>         0.7035 
      15 O3        -0.0720    1.0502    8.7556 O.2       1 <0>        -0.5662 
      16 N3        -1.1129    0.5747    6.8355 N.am      1 <0>        -0.7422 
      17 C11       -1.0279    0.2294    5.4092 C.3       1 <0>         0.1412 
      18 C12       -0.3566    1.3721    4.6486 C.3       1 <0>        -0.0858 
      19 C13       -0.2693    1.0173    3.1834 C.ar      1 <0>        -0.1209 
      20 C14        0.8466    0.3373    2.6810 C.ar      1 <0>        -0.0699 
      21 C15        0.9116   -0.0241    1.3299 C.ar      1 <0>        -0.1435 
      22 C16       -0.1284    0.3169    0.4626 C.ar      1 <0>         0.1285 
      23 C17       -1.2379    1.0155    0.9535 C.ar      1 <0>        -0.2085 
      24 C18       -1.3074    1.3600    2.3088 C.ar      1 <0>        -0.0706 
      25 O4        -0.0600   -0.0342   -0.8598 O.3       1 <0>        -0.2897 
      26 C19       -0.5080    0.9160   -1.8301 C.3       1 <0>         0.0392 
      27 C20       -0.3479    0.3342   -3.2142 C.2       1 <0>         0.5189 
      28 O5        -1.3362   -0.0501   -3.8375 O.2       1 <0>        -0.5163 
      29 N4         0.8618    0.2376   -3.7587 N.am      1 <0>        -0.8501 
      30 H1         7.9644    1.9606   11.3330 H         1 <0>         0.0965 
      31 H2         7.1037    3.0562   12.4362 H         1 <0>         0.0914 
      32 H3         7.1773    1.3164   12.7902 H         1 <0>         0.0912 
      33 H4         6.7885    1.4495    9.4650 H         1 <0>         0.4136 
      34 H5         3.3354    1.8148   10.8074 H         1 <0>         0.1501 
      35 H6         1.3190    1.1667    9.5552 H         1 <0>         0.1469 
      36 H7         3.6576    0.4310    6.0699 H         1 <0>         0.1349 
      37 H8         5.9123    2.5791    5.9491 H         1 <0>         0.1017 
      38 H9         7.2380    1.4352    5.6461 H         1 <0>         0.0561 
      39 H10        5.5640    0.9756    5.2667 H         1 <0>         0.0561 
      40 H11        1.2439    0.3879    5.9789 H         1 <0>         0.4065 
      41 H12       -2.0149    0.6744    7.2788 H         1 <0>         0.3980 
      42 H13       -2.0293    0.0696    5.0152 H         1 <0>         0.0719 
      43 H14       -0.4417   -0.6795    5.2911 H         1 <0>         0.0706 
      44 H15        0.6443    1.5314    5.0441 H         1 <0>         0.0792 
      45 H16       -0.9434    2.2804    4.7682 H         1 <0>         0.0805 
      46 H17        1.6716    0.0801    3.3285 H         1 <0>         0.1321 
      47 H18        1.7667   -0.5616    0.9474 H         1 <0>         0.1348 
      48 H19       -2.0403    1.2836    0.2822 H         1 <0>         0.1285 
      49 H20       -2.1755    1.8949    2.6647 H         1 <0>         0.1266 
      50 H21        0.0844    1.8247   -1.7473 H         1 <0>         0.0957 
      51 H22       -1.5561    1.1479   -1.6525 H         1 <0>         0.0953 
      52 H23        1.6727    0.5535   -3.2460 H         1 <0>         0.4036 
      53 H24        0.9689   -0.1514   -4.6845 H         1 <0>         0.4104 
@<TRIPOS>BOND
       1        1        2 1        
       2        1       30 1        
       3        1       31 1        
       4        1       32 1        
       5        2        3 2        
       6        2        4 am       
       7        4        5 1        
       8        4       33 1        
       9        5       10 ar       
      10        5        6 ar       
      11        6        7 ar       
      12        6       34 1        
      13        7        8 ar       
      14        7       35 1        
      15        8        9 ar       
      16        8       13 1        
      17        9       10 ar       
      18        9       36 1        
      19       10       11 1        
      20       11       12 1        
      21       12       37 1        
      22       12       38 1        
      23       12       39 1        
      24       13       14 am       
      25       13       40 1        
      26       14       15 2        
      27       14       16 am       
      28       16       17 1        
      29       16       41 1        
      30       17       18 1        
      31       17       42 1        
      32       17       43 1        
      33       18       19 1        
      34       18       44 1        
      35       18       45 1        
      36       19       24 ar       
      37       19       20 ar       
      38       20       21 ar       
      39       20       46 1        
      40       21       22 ar       
      41       21       47 1        
      42       22       23 ar       
      43       22       25 1        
      44       23       24 ar       
      45       23       48 1        
      46       24       49 1        
      47       25       26 1        
      48       26       27 1        
      49       26       50 1        
      50       26       51 1        
      51       27       28 2        
      52       27       29 am       
      53       29       52 1        
      54       29       53 1        

