#        1GCZ_R01_S0001_C0000_L00016_S0001_C0002_G0010_E0001.mol2
#        Tue Jun  6 14:17:55 2017
#        Descriptor:      1    18     3    10     7    15
#        Energy - RMSD - RMSD MassCentre:     -37.1675    999.9999    999.9999
#        Receptor:       1  Surface Point:     1  Conformer:     0
#        Ligand:        16  Surface Point:     1  Conformer:     2
#        BUDE Formal Charge: 0
#        ATOM Count: 34
#        Heavy ATOM Count: 16
@<TRIPOS>MOLECULE
ZINC01456998_1GCZ_R01_S0001_C0000_L00016_S0001_C0002_G0010_E0001
 34 34 1 0 0
SMALL
USER_CHARGES
INVALID_CHARGES
@<TRIPOS>ATOM
       1 C1         4.8924    0.8070    7.5213 C.3       1 <1>        -0.6866 
       2 S1         3.2841    1.1161    8.2918 S.o2      1 <1>         2.6131 
       3 O1         3.0843    2.5256    8.4269 O.2       1 <1>        -0.9590 
       4 O2         3.2480    0.5044    9.5839 O.2       1 <1>        -0.9559 
       5 N1         2.0171    0.4418    7.2905 N.pl3     1 <1>        -1.1225 
       6 C2         1.9171    0.8254    5.8750 C.3       1 <1>         0.1462 
       7 C3         0.5184    1.4482    5.6275 C.3       1 <1>        -0.1478 
       8 C4         0.3589    1.8320    4.1447 C.3       1 <1>        -0.1480 
       9 C5         0.5784    0.6018    3.2447 C.3       1 <1>         0.1459 
      10 C6         1.9673   -0.0168    3.4898 C.3       1 <1>        -0.1180 
      11 C7         2.1315   -0.4030    4.9714 C.3       1 <1>        -0.1181 
      12 N2         0.4404    0.9947    1.8350 N.pl3     1 <1>        -1.1224 
      13 S2        -0.8106    0.2752    0.8452 S.o2      1 <1>         2.6132 
      14 O3        -0.8089    0.8905   -0.4456 O.2       1 <1>        -0.9589 
      15 O4        -0.5607   -1.1259    0.7067 O.2       1 <1>        -0.9559 
      16 C8        -2.4209    0.5268    1.6326 C.3       1 <1>        -0.6870 
      17 H1         5.6801    1.2157    8.1510 H         1 <1>         0.1268 
      18 H2         5.0386   -0.2649    7.4062 H         1 <1>         0.1299 
      19 H3         4.9237    1.2849    6.5445 H         1 <1>         0.1290 
      20 H4         1.3551   -0.2107    7.6855 H         1 <1>         0.4413 
      21 H5         2.6901    1.5588    5.6554 H         1 <1>         0.0955 
      22 H6        -0.2518    0.7322    5.9063 H         1 <1>         0.0795 
      23 H7         0.3974    2.3291    6.2545 H         1 <1>         0.0718 
      24 H8         1.0819    2.6027    3.8862 H         1 <1>         0.0718 
      25 H9        -0.6364    2.2354    3.9702 H         1 <1>         0.0797 
      26 H10       -0.1801   -0.1438    3.4734 H         1 <1>         0.0955 
      27 H11        2.7373    0.7004    3.2132 H         1 <1>         0.0813 
      28 H12        2.0871   -0.8956    2.8598 H         1 <1>         0.0755 
      29 H13        1.4067   -1.1727    5.2276 H         1 <1>         0.0813 
      30 H14        3.1259   -0.8095    5.1437 H         1 <1>         0.0754 
      31 H15        1.0675    1.6799    1.4383 H         1 <1>         0.4413 
      32 H16       -2.6154    1.5931    1.7262 H         1 <1>         0.1298 
      33 H17       -3.1971    0.0678    1.0240 H         1 <1>         0.1291 
      34 H18       -2.4161    0.0703    2.6203 H         1 <1>         0.1269 
@<TRIPOS>BOND
       1        1        2 1        
       2        1       17 1        
       3        1       18 1        
       4        1       19 1        
       5        2        3 2        
       6        2        4 2        
       7        2        5 1        
       8        5        6 1        
       9        5       20 1        
      10        6       11 1        
      11        6        7 1        
      12        6       21 1        
      13        7        8 1        
      14        7       22 1        
      15        7       23 1        
      16        8        9 1        
      17        8       24 1        
      18        8       25 1        
      19        9       10 1        
      20        9       12 1        
      21        9       26 1        
      22       10       11 1        
      23       10       27 1        
      24       10       28 1        
      25       11       29 1        
      26       11       30 1        
      27       12       13 1        
      28       12       31 1        
      29       13       14 2        
      30       13       15 2        
      31       13       16 1        
      32       16       32 1        
      33       16       33 1        
      34       16       34 1        

