#        1GCZ_R01_S0001_C0000_L00016_S0001_C0003_G0010_E0001.mol2
#        Tue Jun  6 10:00:49 2017
#        Descriptor:     32    11    31     6    10    11
#        Energy - RMSD - RMSD MassCentre:     -42.8269    999.9999    999.9999
#        Receptor:       1  Surface Point:     1  Conformer:     0
#        Ligand:        16  Surface Point:     1  Conformer:     3
#        BUDE Formal Charge: 0
#        ATOM Count: 34
#        Heavy ATOM Count: 16
@<TRIPOS>MOLECULE
ZINC01456998_1GCZ_R01_S0001_C0000_L00016_S0001_C0003_G0010_E0001
 34 34 1 0 0
SMALL
USER_CHARGES
INVALID_CHARGES
@<TRIPOS>ATOM
       1 C1        -1.2408    0.5927   -0.0571 C.3       1 <1>        -0.6866 
       2 S1        -0.6423    0.0330    1.5567 S.o2      1 <1>         2.6131 
       3 O1         0.7091   -0.4179    1.4328 O.2       1 <1>        -0.9590 
       4 O2        -1.4618   -1.0420    2.0234 O.2       1 <1>        -0.9559 
       5 N1        -0.7115    1.3584    2.6974 N.pl3     1 <1>        -1.1225 
       6 C2        -0.2906    1.1512    4.0904 C.3       1 <1>         0.1462 
       7 C3        -1.4811    1.4924    5.0242 C.3       1 <1>        -0.1478 
       8 C4        -1.0699    1.3225    6.4986 C.3       1 <1>        -0.1480 
       9 C5         0.1506    2.2048    6.8210 C.3       1 <1>         0.1459 
      10 C6         1.3330    1.8661    5.8944 C.3       1 <1>        -0.1180 
      11 C7         0.9268    2.0352    4.4186 C.3       1 <1>        -0.1181 
      12 N2         0.5368    2.0127    8.2262 N.pl3     1 <1>        -1.1224 
      13 S2         0.4962    3.3645    9.3368 S.o2      1 <1>         2.6132 
      14 O3         0.8106    2.9071   10.6547 O.2       1 <1>        -0.9589 
      15 O4         1.4555    4.3437    8.9296 O.2       1 <1>        -0.9559 
      16 C8        -1.1576    4.0997    9.3306 C.3       1 <1>        -0.6870 
      17 H1        -1.2090   -0.2355   -0.7622 H         1 <1>         0.1268 
      18 H2        -2.2644    0.9483    0.0398 H         1 <1>         0.1299 
      19 H3        -0.6080    1.4008   -0.4176 H         1 <1>         0.1290 
      20 H4        -1.0407    2.2651    2.3982 H         1 <1>         0.4413 
      21 H5        -0.0092    0.1084    4.2199 H         1 <1>         0.0955 
      22 H6        -1.7982    2.5180    4.8474 H         1 <1>         0.0795 
      23 H7        -2.3208    0.8396    4.7951 H         1 <1>         0.0718 
      24 H8        -0.8240    0.2806    6.6923 H         1 <1>         0.0718 
      25 H9        -1.8975    1.5973    7.1492 H         1 <1>         0.0797 
      26 H10       -0.1189    3.2486    6.6744 H         1 <1>         0.0955 
      27 H11        1.6482    0.8396    6.0696 H         1 <1>         0.0813 
      28 H12        2.1722    2.5181    6.1273 H         1 <1>         0.0755 
      29 H13        0.6804    3.0775    4.2278 H         1 <1>         0.0813 
      30 H14        1.7565    1.7636    3.7692 H         1 <1>         0.0754 
      31 H15        0.8254    1.1006    8.5500 H         1 <1>         0.4413 
      32 H16       -1.8850    3.3574    9.6525 H         1 <1>         0.1298 
      33 H17       -1.1792    4.9484   10.0111 H         1 <1>         0.1291 
      34 H18       -1.4012    4.4345    8.3245 H         1 <1>         0.1269 
@<TRIPOS>BOND
       1        1        2 1        
       2        1       17 1        
       3        1       18 1        
       4        1       19 1        
       5        2        3 2        
       6        2        4 2        
       7        2        5 1        
       8        5        6 1        
       9        5       20 1        
      10        6       11 1        
      11        6        7 1        
      12        6       21 1        
      13        7        8 1        
      14        7       22 1        
      15        7       23 1        
      16        8        9 1        
      17        8       24 1        
      18        8       25 1        
      19        9       10 1        
      20        9       12 1        
      21        9       26 1        
      22       10       11 1        
      23       10       27 1        
      24       10       28 1        
      25       11       29 1        
      26       11       30 1        
      27       12       13 1        
      28       12       31 1        
      29       13       14 2        
      30       13       15 2        
      31       13       16 1        
      32       16       32 1        
      33       16       33 1        
      34       16       34 1        

