#        1GCZ_R01_S0001_C0000_L00003_S0001_C0033_G0010_E0001.mol2
#        Tue Jun  6 14:04:33 2017
#        Descriptor:     30    22    36    13     7    13
#        Energy - RMSD - RMSD MassCentre:     -65.2348    999.9999    999.9999
#        Receptor:       1  Surface Point:     1  Conformer:     0
#        Ligand:         3  Surface Point:     1  Conformer:    33
#        BUDE Formal Charge: 0
#        ATOM Count: 58
#        Heavy ATOM Count: 30
@<TRIPOS>MOLECULE
ZINC61580633_1GCZ_R01_S0001_C0000_L00003_S0001_C0033_G0010_E0001
 58 59 0 0 0
SMALL
USER_CHARGES
@<TRIPOS>ATOM
       1 C1        -2.0173    0.9718    3.1509 C.3       1 <0>        -0.1532 
       2 C2        -0.6927    1.3532    3.8058 C.3       1 <0>        -0.1224 
       3 C3        -0.0841    0.1223    4.4763 C.3       1 <0>        -0.1198 
       4 C4         1.2422    0.5042    5.1321 C.3       1 <0>         0.0610 
       5 O1         2.1642    0.9324    4.1265 O.3       1 <0>        -0.3878 
       6 C5         3.4280    1.3039    4.6833 C.3       1 <0>         0.0487 
       7 C6         3.2331    2.4649    5.6572 C.3       1 <0>         0.1244 
       8 N1         4.5322    2.8466    6.2295 N.am      1 <0>        -0.7216 
       9 C7         5.1272    2.0528    7.1152 C.2       1 <0>         0.5161 
      10 O2         4.5915    0.9993    7.4556 O.2       1 <0>        -0.5151 
      11 C8         6.4617    2.4450    7.7030 C.3       1 <0>         0.0490 
      12 O3         7.4710    2.3550    6.6940 O.3       1 <0>        -0.3194 
      13 C9         7.7244    1.1421    6.1582 C.2       1 <0>         0.5417 
      14 O4         7.1003    0.1646    6.5369 O.2       1 <0>        -0.5337 
      15 C10        8.7598    0.9980    5.1108 C.2       1 <0>        -0.2559 
      16 C11        9.5639    2.1168    4.5702 C.2       1 <0>        -0.0791 
      17 C12       10.4180    1.7190    3.6245 C.2       1 <0>        -0.2585 
      18 S1        10.3301   -0.0211    3.3135 S.3       1 <0>         0.3028 
      19 C13        9.0610   -0.1751    4.5376 C.2       1 <0>         0.0893 
      20 N2         8.4266   -1.3395    4.8819 N.am      1 <0>        -0.6099 
      21 C14        8.7593   -2.4807    4.2853 C.2       1 <0>         0.5551 
      22 O5         9.6373   -2.4907    3.4239 O.2       1 <0>        -0.4939 
      23 C15        8.0730   -3.7377    4.6584 C.ar      1 <0>        -0.1466 
      24 C16        8.4525   -4.9152    4.0030 C.ar      1 <0>        -0.0772 
      25 C17        7.7898   -6.1214    4.2596 C.ar      1 <0>        -0.1241 
      26 C18        6.7276   -6.1703    5.1698 C.ar      1 <0>        -0.0446 
      27 C19        6.3809   -5.0060    5.8657 C.ar      1 <0>        -0.1261 
      28 C20        7.0653   -3.8082    5.6277 C.ar      1 <0>        -0.0460 
      29 C21        5.9854   -7.4675    5.3864 C.3       1 <0>        -0.0928 
      30 C22        4.8145   -7.5514    4.4115 C.3       1 <0>        -0.1485 
      31 H1        -2.7055    0.6083    3.9110 H         1 <0>         0.0567 
      32 H2        -1.8448    0.1907    2.4136 H         1 <0>         0.0554 
      33 H3        -2.4439    1.8451    2.6620 H         1 <0>         0.0557 
      34 H4        -0.0078    1.7286    3.0484 H         1 <0>         0.0632 
      35 H5        -0.8657    2.1244    4.5535 H         1 <0>         0.0635 
      36 H6        -0.7678   -0.2537    5.2344 H         1 <0>         0.0711 
      37 H7         0.0903   -0.6493    3.7294 H         1 <0>         0.0704 
      38 H8         1.0775    1.3132    5.8406 H         1 <0>         0.0498 
      39 H9         1.6508   -0.3585    5.6542 H         1 <0>         0.0505 
      40 H10        4.1008    1.6101    3.8850 H         1 <0>         0.0584 
      41 H11        3.8554    0.4549    5.2128 H         1 <0>         0.0702 
      42 H12        2.5611    2.1596    6.4565 H         1 <0>         0.0872 
      43 H13        2.8066    3.3147    5.1286 H         1 <0>         0.0805 
      44 H14        4.9731    3.7114    5.9506 H         1 <0>         0.4058 
      45 H15        6.4097    3.4668    8.0728 H         1 <0>         0.1008 
      46 H16        6.7087    1.7740    8.5230 H         1 <0>         0.0999 
      47 H17        9.4628    3.1319    4.9249 H         1 <0>         0.1557 
      48 H18       11.0928    2.3966    3.1227 H         1 <0>         0.1929 
      49 H19        7.7057   -1.3313    5.5892 H         1 <0>         0.4317 
      50 H20        9.2617   -4.8945    3.2881 H         1 <0>         0.1287 
      51 H21        8.0954   -7.0246    3.7526 H         1 <0>         0.1326 
      52 H22        5.5816   -5.0461    6.5909 H         1 <0>         0.1342 
      53 H23        6.7940   -2.9582    6.2361 H         1 <0>         0.1410 
      54 H24        5.6114   -7.5043    6.4074 H         1 <0>         0.0777 
      55 H25        6.6604   -8.3035    5.2164 H         1 <0>         0.0771 
      56 H26        5.1907   -7.5271    3.3909 H         1 <0>         0.0623 
      57 H27        4.1475   -6.7071    4.5730 H         1 <0>         0.0572 
      58 H28        4.2719   -8.4799    4.5766 H         1 <0>         0.0578 
@<TRIPOS>BOND
       1        1        2 1        
       2        1       31 1        
       3        1       32 1        
       4        1       33 1        
       5        2        3 1        
       6        2       34 1        
       7        2       35 1        
       8        3        4 1        
       9        3       36 1        
      10        3       37 1        
      11        4        5 1        
      12        4       38 1        
      13        4       39 1        
      14        5        6 1        
      15        6        7 1        
      16        6       40 1        
      17        6       41 1        
      18        7        8 1        
      19        7       42 1        
      20        7       43 1        
      21        8        9 am       
      22        8       44 1        
      23        9       10 2        
      24        9       11 1        
      25       11       12 1        
      26       11       45 1        
      27       11       46 1        
      28       12       13 1        
      29       13       14 2        
      30       13       15 1        
      31       15       19 2        
      32       15       16 1        
      33       16       17 2        
      34       16       47 1        
      35       17       18 1        
      36       17       48 1        
      37       18       19 1        
      38       19       20 1        
      39       20       21 am       
      40       20       49 1        
      41       21       22 2        
      42       21       23 1        
      43       23       28 ar       
      44       23       24 ar       
      45       24       25 ar       
      46       24       50 1        
      47       25       26 ar       
      48       25       51 1        
      49       26       27 ar       
      50       26       29 1        
      51       27       28 ar       
      52       27       52 1        
      53       28       53 1        
      54       29       30 1        
      55       29       54 1        
      56       29       55 1        
      57       30       56 1        
      58       30       57 1        
      59       30       58 1        

