#        1GCZ_R01_S0001_C0000_L00016_S0001_C0004_G0010_E0001.mol2
#        Tue Jun  6 10:00:49 2017
#        Descriptor:      3    19    30     6     9    13
#        Energy - RMSD - RMSD MassCentre:     -45.9166    999.9999    999.9999
#        Receptor:       1  Surface Point:     1  Conformer:     0
#        Ligand:        16  Surface Point:     1  Conformer:     4
#        BUDE Formal Charge: 0
#        ATOM Count: 34
#        Heavy ATOM Count: 16
@<TRIPOS>MOLECULE
ZINC01456998_1GCZ_R01_S0001_C0000_L00016_S0001_C0004_G0010_E0001
 34 34 1 0 0
SMALL
USER_CHARGES
INVALID_CHARGES
@<TRIPOS>ATOM
       1 C1        -0.1097   -1.6944    6.0343 C.3       1 <1>        -0.6866 
       2 S1         0.3501    0.0508    6.1712 S.o2      1 <1>         2.6131 
       3 O1         1.7547    0.1921    5.9439 O.2       1 <1>        -0.9590 
       4 O2         0.0297    0.5277    7.4808 O.2       1 <1>        -0.9559 
       5 N1        -0.5294    0.9821    4.9789 N.pl3     1 <1>        -1.1225 
       6 C2        -0.4590    0.6102    3.5585 C.3       1 <1>         0.1462 
       7 C3         0.0897    1.8188    2.7560 C.3       1 <1>        -0.1478 
       8 C4         0.1455    1.4821    1.2543 C.3       1 <1>        -0.1480 
       9 C5        -1.2481    1.0719    0.7435 C.3       1 <1>         0.1459 
      10 C6        -1.7932   -0.1283    1.5397 C.3       1 <1>        -0.1180 
      11 C7        -1.8516    0.2035    3.0423 C.3       1 <1>        -0.1181 
      12 N2        -1.1675    0.7373   -0.6856 N.pl3     1 <1>        -1.1224 
      13 S2        -0.1505   -0.5835   -1.2184 S.o2      1 <1>         2.6132 
      14 O3         1.2076   -0.3115   -0.8629 O.2       1 <1>        -0.9589 
      15 O4        -0.5755   -1.7952   -0.5890 O.2       1 <1>        -0.9559 
      16 C8        -0.2818   -0.7577   -3.0153 C.3       1 <1>        -0.6870 
      17 H1         0.4284   -2.2705    6.7844 H         1 <1>         0.1268 
      18 H2        -1.1806   -1.8003    6.1940 H         1 <1>         0.1299 
      19 H3         0.1476   -2.0598    5.0424 H         1 <1>         0.1290 
      20 H4        -1.0850    1.7747    5.2671 H         1 <1>         0.4413 
      21 H5         0.2138   -0.2380    3.4514 H         1 <1>         0.0955 
      22 H6        -0.5534    2.6817    2.9151 H         1 <1>         0.0795 
      23 H7         1.0840    2.0728    3.1171 H         1 <1>         0.0718 
      24 H8         0.8462    0.6668    1.0877 H         1 <1>         0.0718 
      25 H9         0.4974    2.3452    0.6928 H         1 <1>         0.0797 
      26 H10       -1.9308    1.9100    0.8660 H         1 <1>         0.0955 
      27 H11       -1.1485   -0.9905    1.3823 H         1 <1>         0.0813 
      28 H12       -2.7862   -0.3823    1.1749 H         1 <1>         0.0755 
      29 H13       -2.5519    1.0199    3.2061 H         1 <1>         0.0813 
      30 H14       -2.2071   -0.6591    3.6021 H         1 <1>         0.0754 
      31 H15       -1.6991    1.2698   -1.3593 H         1 <1>         0.4413 
      32 H16        0.0536    0.1603   -3.4934 H         1 <1>         0.1298 
      33 H17        0.3402   -1.5872   -3.3449 H         1 <1>         0.1291 
      34 H18       -1.3179   -0.9505   -3.2855 H         1 <1>         0.1269 
@<TRIPOS>BOND
       1        1        2 1        
       2        1       17 1        
       3        1       18 1        
       4        1       19 1        
       5        2        3 2        
       6        2        4 2        
       7        2        5 1        
       8        5        6 1        
       9        5       20 1        
      10        6       11 1        
      11        6        7 1        
      12        6       21 1        
      13        7        8 1        
      14        7       22 1        
      15        7       23 1        
      16        8        9 1        
      17        8       24 1        
      18        8       25 1        
      19        9       10 1        
      20        9       12 1        
      21        9       26 1        
      22       10       11 1        
      23       10       27 1        
      24       10       28 1        
      25       11       29 1        
      26       11       30 1        
      27       12       13 1        
      28       12       31 1        
      29       13       14 2        
      30       13       15 2        
      31       13       16 1        
      32       16       32 1        
      33       16       33 1        
      34       16       34 1        

