#        1GCZ_R01_S0001_C0000_L00016_S0001_C0004_G0010_E0001.mol2
#        Tue Jun  6 14:17:58 2017
#        Descriptor:     21    34     9     7    11    15
#        Energy - RMSD - RMSD MassCentre:     -43.3806    999.9999    999.9999
#        Receptor:       1  Surface Point:     1  Conformer:     0
#        Ligand:        16  Surface Point:     1  Conformer:     4
#        BUDE Formal Charge: 0
#        ATOM Count: 34
#        Heavy ATOM Count: 16
@<TRIPOS>MOLECULE
ZINC01456998_1GCZ_R01_S0001_C0000_L00016_S0001_C0004_G0010_E0001
 34 34 1 0 0
SMALL
USER_CHARGES
INVALID_CHARGES
@<TRIPOS>ATOM
       1 C1        -0.7101   -0.0492    8.5879 C.3       1 <1>        -0.6866 
       2 S1         0.5606    1.2367    8.5002 S.o2      1 <1>         2.6131 
       3 O1         1.8477    0.6260    8.3770 O.2       1 <1>        -0.9590 
       4 O2         0.5216    2.0286    9.6904 O.2       1 <1>        -0.9559 
       5 N1         0.2646    2.2570    7.1096 N.pl3     1 <1>        -1.1225 
       6 C2         0.1397    1.6585    5.7728 C.3       1 <1>         0.1462 
       7 C3         1.2191    2.2797    4.8484 C.3       1 <1>        -0.1478 
       8 C4         1.0991    1.7043    3.4249 C.3       1 <1>        -0.1480 
       9 C5        -0.3129    1.9519    2.8626 C.3       1 <1>         0.1459 
      10 C6        -1.3851    1.3350    3.7799 C.3       1 <1>        -0.1180 
      11 C7        -1.2697    1.9077    5.2047 C.3       1 <1>        -0.1181 
      12 N2        -0.4104    1.3787    1.5126 N.pl3     1 <1>        -1.1224 
      13 S2        -0.1900   -0.3410    1.2748 S.o2      1 <1>         2.6132 
      14 O3         1.1221   -0.7161    1.7019 O.2       1 <1>        -0.9589 
      15 O4        -1.1639   -1.0558    2.0399 O.2       1 <1>        -0.9559 
      16 C8        -0.3908   -0.7370   -0.4800 C.3       1 <1>        -0.6870 
      17 H1        -0.5322   -0.6752    9.4599 H         1 <1>         0.1268 
      18 H2        -1.6905    0.4156    8.6682 H         1 <1>         0.1299 
      19 H3        -0.6700   -0.6598    7.6884 H         1 <1>         0.1290 
      20 H4         0.1798    3.2566    7.2260 H         1 <1>         0.4413 
      21 H5         0.2982    0.5852    5.8533 H         1 <1>         0.0955 
      22 H6         1.0936    3.3599    4.8195 H         1 <1>         0.0795 
      23 H7         2.2072    2.0694    5.2522 H         1 <1>         0.0718 
      24 H8         1.2982    0.6350    3.4443 H         1 <1>         0.0718 
      25 H9         1.8355    2.1696    2.7728 H         1 <1>         0.0797 
      26 H10       -0.4851    3.0242    2.7980 H         1 <1>         0.0955 
      27 H11       -1.2578    0.2549    3.8105 H         1 <1>         0.0813 
      28 H12       -2.3720    1.5440    3.3727 H         1 <1>         0.0755 
      29 H13       -1.4680    2.9772    5.1824 H         1 <1>         0.0813 
      30 H14       -2.0089    1.4442    5.8548 H         1 <1>         0.0754 
      31 H15       -0.6045    1.9776    0.7229 H         1 <1>         0.4413 
      32 H16        0.3587   -0.2022   -1.0598 H         1 <1>         0.1298 
      33 H17       -0.2670   -1.8080   -0.6259 H         1 <1>         0.1291 
      34 H18       -1.3845   -0.4381   -0.8071 H         1 <1>         0.1269 
@<TRIPOS>BOND
       1        1        2 1        
       2        1       17 1        
       3        1       18 1        
       4        1       19 1        
       5        2        3 2        
       6        2        4 2        
       7        2        5 1        
       8        5        6 1        
       9        5       20 1        
      10        6       11 1        
      11        6        7 1        
      12        6       21 1        
      13        7        8 1        
      14        7       22 1        
      15        7       23 1        
      16        8        9 1        
      17        8       24 1        
      18        8       25 1        
      19        9       10 1        
      20        9       12 1        
      21        9       26 1        
      22       10       11 1        
      23       10       27 1        
      24       10       28 1        
      25       11       29 1        
      26       11       30 1        
      27       12       13 1        
      28       12       31 1        
      29       13       14 2        
      30       13       15 2        
      31       13       16 1        
      32       16       32 1        
      33       16       33 1        
      34       16       34 1        

