#        1GCZ_R01_S0001_C0000_L00016_S0001_C0005_G0010_E0001.mol2
#        Tue Jun  6 10:00:50 2017
#        Descriptor:      9     6    21     5     9     9
#        Energy - RMSD - RMSD MassCentre:     -46.6572    999.9999    999.9999
#        Receptor:       1  Surface Point:     1  Conformer:     0
#        Ligand:        16  Surface Point:     1  Conformer:     5
#        BUDE Formal Charge: 0
#        ATOM Count: 34
#        Heavy ATOM Count: 16
@<TRIPOS>MOLECULE
ZINC01456998_1GCZ_R01_S0001_C0000_L00016_S0001_C0005_G0010_E0001
 34 34 1 0 0
SMALL
USER_CHARGES
INVALID_CHARGES
@<TRIPOS>ATOM
       1 C1        -1.2373    1.4011   -1.9386 C.3       1 <1>        -0.6866 
       2 S1        -0.6097    0.6723   -0.4053 S.o2      1 <1>         2.6131 
       3 O1         0.7595    1.0444   -0.2272 O.2       1 <1>        -0.9590 
       4 O2        -0.7102   -0.7524   -0.4775 O.2       1 <1>        -0.9559 
       5 N1        -1.5526    1.2567    0.9483 N.pl3     1 <1>        -1.1225 
       6 C2        -1.2469    0.7955    2.3100 C.3       1 <1>         0.1462 
       7 C3        -2.5125    0.1215    2.9013 C.3       1 <1>        -0.1478 
       8 C4        -2.2449   -0.3452    4.3443 C.3       1 <1>        -0.1480 
       9 C5        -1.7961    0.8410    5.2181 C.3       1 <1>         0.1459 
      10 C6        -0.5393    1.5102    4.6316 C.3       1 <1>        -0.1180 
      11 C7        -0.8021    1.9794    3.1886 C.3       1 <1>        -0.1181 
      12 N2        -1.5284    0.3696    6.5844 N.pl3     1 <1>        -1.1224 
      13 S2        -0.2786   -0.8217    6.8692 S.o2      1 <1>         2.6132 
      14 O3        -0.5944   -2.0219    6.1588 O.2       1 <1>        -0.9589 
      15 O4         0.9771   -0.3126    6.4122 O.2       1 <1>        -0.9559 
      16 C8        -0.1777   -1.1769    8.6412 C.3       1 <1>        -0.6870 
      17 H1        -0.6583    1.0273   -2.7806 H         1 <1>         0.1268 
      18 H2        -2.2828    1.1291   -2.0672 H         1 <1>         0.1299 
      19 H3        -1.1471    2.4841   -1.8881 H         1 <1>         0.1290 
      20 H4        -2.3066    1.9106    0.7932 H         1 <1>         0.4413 
      21 H5        -0.4348    0.0733    2.2612 H         1 <1>         0.0955 
      22 H6        -3.3383    0.8296    2.8916 H         1 <1>         0.0795 
      23 H7        -2.7941   -0.7277    2.2823 H         1 <1>         0.0718 
      24 H8        -1.4693   -1.1081    4.3444 H         1 <1>         0.0718 
      25 H9        -3.1464   -0.7848    4.7658 H         1 <1>         0.0797 
      26 H10       -2.5972    1.5762    5.2549 H         1 <1>         0.0955 
      27 H11        0.2858    0.8010    4.6390 H         1 <1>         0.0813 
      28 H12       -0.2579    2.3572    5.2537 H         1 <1>         0.0755 
      29 H13       -1.5787    2.7412    3.1911 H         1 <1>         0.0813 
      30 H14        0.0992    2.4221    2.7696 H         1 <1>         0.0754 
      31 H15       -2.0660    0.7335    7.3582 H         1 <1>         0.4413 
      32 H16       -1.1297   -1.5758    8.9852 H         1 <1>         0.1298 
      33 H17        0.6083   -1.9076    8.8198 H         1 <1>         0.1291 
      34 H18        0.0486   -0.2602    9.1818 H         1 <1>         0.1269 
@<TRIPOS>BOND
       1        1        2 1        
       2        1       17 1        
       3        1       18 1        
       4        1       19 1        
       5        2        3 2        
       6        2        4 2        
       7        2        5 1        
       8        5        6 1        
       9        5       20 1        
      10        6       11 1        
      11        6        7 1        
      12        6       21 1        
      13        7        8 1        
      14        7       22 1        
      15        7       23 1        
      16        8        9 1        
      17        8       24 1        
      18        8       25 1        
      19        9       10 1        
      20        9       12 1        
      21        9       26 1        
      22       10       11 1        
      23       10       27 1        
      24       10       28 1        
      25       11       29 1        
      26       11       30 1        
      27       12       13 1        
      28       12       31 1        
      29       13       14 2        
      30       13       15 2        
      31       13       16 1        
      32       16       32 1        
      33       16       33 1        
      34       16       34 1        

