#        1GCZ_R01_S0001_C0000_L00016_S0001_C0005_G0010_E0001.mol2
#        Tue Jun  6 14:17:59 2017
#        Descriptor:     10    24    25     6    10    15
#        Energy - RMSD - RMSD MassCentre:     -47.2124    999.9999    999.9999
#        Receptor:       1  Surface Point:     1  Conformer:     0
#        Ligand:        16  Surface Point:     1  Conformer:     5
#        BUDE Formal Charge: 0
#        ATOM Count: 34
#        Heavy ATOM Count: 16
@<TRIPOS>MOLECULE
ZINC01456998_1GCZ_R01_S0001_C0000_L00016_S0001_C0005_G0010_E0001
 34 34 1 0 0
SMALL
USER_CHARGES
INVALID_CHARGES
@<TRIPOS>ATOM
       1 C1        -2.1282    0.1237    9.8924 C.3       1 <1>        -0.6866 
       2 S1        -1.5099   -0.4303    8.2841 S.o2      1 <1>         2.6131 
       3 O1        -1.8650   -1.8010    8.0843 O.2       1 <1>        -0.9590 
       4 O2        -0.0865   -0.2974    8.2480 O.2       1 <1>        -0.9559 
       5 N1        -2.2202    0.5458    7.0171 N.pl3     1 <1>        -1.1225 
       6 C2        -1.8619    0.3006    5.6128 C.3       1 <1>         0.1462 
       7 C3        -1.2647    1.6028    5.0186 C.3       1 <1>        -0.1478 
       8 C4        -0.9083    1.3988    3.5343 C.3       1 <1>        -0.1480 
       9 C5        -2.1499    0.9525    2.7401 C.3       1 <1>         0.1459 
      10 C6        -2.7430   -0.3407    3.3294 C.3       1 <1>        -0.1180 
      11 C7        -3.1018   -0.1415    4.8137 C.3       1 <1>        -0.1181 
      12 N2        -1.7828    0.7458    1.3319 N.pl3     1 <1>        -1.1224 
      13 S2        -0.5909   -0.4632    0.9075 S.o2      1 <1>         2.6132 
      14 O3         0.6547   -0.1436    1.5329 O.2       1 <1>        -0.9589 
      15 O4        -1.0346   -1.7467    1.3554 O.2       1 <1>        -0.9559 
      16 C8        -0.3752   -0.4917   -0.8895 C.3       1 <1>        -0.6870 
      17 H1        -1.6763   -0.4758   10.6801 H         1 <1>         0.1268 
      18 H2        -1.8697    1.1703   10.0386 H         1 <1>         0.1299 
      19 H3        -3.2095    0.0086    9.9237 H         1 <1>         0.1290 
      20 H4        -2.8760    1.2773    7.2513 H         1 <1>         0.4413 
      21 H5        -1.1206   -0.4947    5.5742 H         1 <1>         0.0955 
      22 H6        -1.9876    2.4101    5.1149 H         1 <1>         0.0795 
      23 H7        -0.3754    1.8830    5.5792 H         1 <1>         0.0718 
      24 H8        -0.1310    0.6428    3.4451 H         1 <1>         0.0718 
      25 H9        -0.5232    2.3255    3.1140 H         1 <1>         0.0797 
      26 H10       -2.9031    1.7360    2.7913 H         1 <1>         0.0955 
      27 H11       -2.0188   -1.1472    3.2353 H         1 <1>         0.0813 
      28 H12       -3.6303   -0.6204    2.7655 H         1 <1>         0.0755 
      29 H13       -3.8782    0.6157    4.9003 H         1 <1>         0.0813 
      30 H14       -3.4902   -1.0679    5.2318 H         1 <1>         0.0754 
      31 H15       -2.2185    1.3016    0.6099 H         1 <1>         0.4413 
      32 H16       -0.0257    0.4815   -1.2276 H         1 <1>         0.1298 
      33 H17        0.3559   -1.2525   -1.1544 H         1 <1>         0.1291 
      34 H18       -1.3268   -0.7211   -1.3646 H         1 <1>         0.1269 
@<TRIPOS>BOND
       1        1        2 1        
       2        1       17 1        
       3        1       18 1        
       4        1       19 1        
       5        2        3 2        
       6        2        4 2        
       7        2        5 1        
       8        5        6 1        
       9        5       20 1        
      10        6       11 1        
      11        6        7 1        
      12        6       21 1        
      13        7        8 1        
      14        7       22 1        
      15        7       23 1        
      16        8        9 1        
      17        8       24 1        
      18        8       25 1        
      19        9       10 1        
      20        9       12 1        
      21        9       26 1        
      22       10       11 1        
      23       10       27 1        
      24       10       28 1        
      25       11       29 1        
      26       11       30 1        
      27       12       13 1        
      28       12       31 1        
      29       13       14 2        
      30       13       15 2        
      31       13       16 1        
      32       16       32 1        
      33       16       33 1        
      34       16       34 1        

