#        1GCZ_R01_S0001_C0000_L00016_S0001_C0006_G0010_E0001.mol2
#        Tue Jun  6 10:00:50 2017
#        Descriptor:     11     4    18     5     9     9
#        Energy - RMSD - RMSD MassCentre:     -44.0514    999.9999    999.9999
#        Receptor:       1  Surface Point:     1  Conformer:     0
#        Ligand:        16  Surface Point:     1  Conformer:     6
#        BUDE Formal Charge: 0
#        ATOM Count: 34
#        Heavy ATOM Count: 16
@<TRIPOS>MOLECULE
ZINC01456998_1GCZ_R01_S0001_C0000_L00016_S0001_C0006_G0010_E0001
 34 34 1 0 0
SMALL
USER_CHARGES
INVALID_CHARGES
@<TRIPOS>ATOM
       1 C1        -0.2557    0.5072   -1.0320 C.3       1 <1>        -0.6866 
       2 S1        -0.4397   -0.0654    0.6751 S.o2      1 <1>         2.6131 
       3 O1         0.8186    0.0308    1.3475 O.2       1 <1>        -0.9590 
       4 O2        -0.8777   -1.4268    0.6776 O.2       1 <1>        -0.9559 
       5 N1        -1.6190    0.9293    1.5013 N.pl3     1 <1>        -1.1225 
       6 C2        -1.9587    0.6533    2.9045 C.3       1 <1>         0.1462 
       7 C3        -0.6757    0.8002    3.7636 C.3       1 <1>        -0.1478 
       8 C4        -0.9814    0.4833    5.2393 C.3       1 <1>        -0.1480 
       9 C5        -1.5723   -0.9326    5.3736 C.3       1 <1>         0.1459 
      10 C6        -2.8464   -1.0788    4.5210 C.3       1 <1>        -0.1180 
      11 C7        -2.5457   -0.7635    3.0440 C.3       1 <1>        -0.1181 
      12 N2        -1.8735   -1.2060    6.7860 N.pl3     1 <1>        -1.1224 
      13 S2        -1.0704   -2.5232    7.6122 S.o2      1 <1>         2.6132 
      14 O3        -1.4483   -2.5208    8.9914 O.2       1 <1>        -0.9589 
      15 O4        -1.4538   -3.7643    7.0142 O.2       1 <1>        -0.9559 
      16 C8         0.7225   -2.3154    7.4765 C.3       1 <1>        -0.6870 
      17 H1         0.4685   -0.1198   -1.5481 H         1 <1>         0.1268 
      18 H2        -1.2160    0.4467   -1.5396 H         1 <1>         0.1299 
      19 H3         0.0912    1.5383   -1.0325 H         1 <1>         0.1290 
      20 H4        -2.0657    1.6926    1.0136 H         1 <1>         0.4413 
      21 H5        -2.7050    1.3736    3.2325 H         1 <1>         0.0955 
      22 H6         0.0886    0.1205    3.3928 H         1 <1>         0.0795 
      23 H7        -0.2925    1.8144    3.6729 H         1 <1>         0.0718 
      24 H8        -1.6908    1.2095    5.6303 H         1 <1>         0.0718 
      25 H9        -0.0709    0.5534    5.8307 H         1 <1>         0.0797 
      26 H10       -0.8373   -1.6568    5.0286 H         1 <1>         0.0955 
      27 H11       -3.6098   -0.3972    4.8904 H         1 <1>         0.0813 
      28 H12       -3.2293   -2.0927    4.6156 H         1 <1>         0.0755 
      29 H13       -1.8354   -1.4904    2.6558 H         1 <1>         0.0813 
      30 H14       -3.4564   -0.8376    2.4532 H         1 <1>         0.0754 
      31 H15       -2.5438   -0.6336    7.2791 H         1 <1>         0.4413 
      32 H16        1.0144   -1.3769    7.9428 H         1 <1>         0.1298 
      33 H17        1.2218   -3.1414    7.9786 H         1 <1>         0.1291 
      34 H18        1.0071   -2.3033    6.4263 H         1 <1>         0.1269 
@<TRIPOS>BOND
       1        1        2 1        
       2        1       17 1        
       3        1       18 1        
       4        1       19 1        
       5        2        3 2        
       6        2        4 2        
       7        2        5 1        
       8        5        6 1        
       9        5       20 1        
      10        6       11 1        
      11        6        7 1        
      12        6       21 1        
      13        7        8 1        
      14        7       22 1        
      15        7       23 1        
      16        8        9 1        
      17        8       24 1        
      18        8       25 1        
      19        9       10 1        
      20        9       12 1        
      21        9       26 1        
      22       10       11 1        
      23       10       27 1        
      24       10       28 1        
      25       11       29 1        
      26       11       30 1        
      27       12       13 1        
      28       12       31 1        
      29       13       14 2        
      30       13       15 2        
      31       13       16 1        
      32       16       32 1        
      33       16       33 1        
      34       16       34 1        

