#        1GCZ_R01_S0001_C0000_L00016_S0001_C0006_G0010_E0001.mol2
#        Tue Jun  6 14:18:01 2017
#        Descriptor:     14    23    27     8    11    13
#        Energy - RMSD - RMSD MassCentre:     -40.9428    999.9999    999.9999
#        Receptor:       1  Surface Point:     1  Conformer:     0
#        Ligand:        16  Surface Point:     1  Conformer:     6
#        BUDE Formal Charge: 0
#        ATOM Count: 34
#        Heavy ATOM Count: 16
@<TRIPOS>MOLECULE
ZINC01456998_1GCZ_R01_S0001_C0000_L00016_S0001_C0006_G0010_E0001
 34 34 1 0 0
SMALL
USER_CHARGES
INVALID_CHARGES
@<TRIPOS>ATOM
       1 C1         0.3230    0.4828    7.3371 C.3       1 <1>        -0.6866 
       2 S1         0.2243    0.2703    5.5424 S.o2      1 <1>         2.6131 
       3 O1        -0.5210   -0.9129    5.2436 O.2       1 <1>        -0.9590 
       4 O2         1.5430    0.1511    5.0023 O.2       1 <1>        -0.9559 
       5 N1        -0.5746    1.6564    4.8329 N.pl3     1 <1>        -1.1225 
       6 C2        -0.7639    1.7295    3.3771 C.3       1 <1>         0.1462 
       7 C3        -1.6325    0.5252    2.9288 C.3       1 <1>        -0.1478 
       8 C4        -1.8251    0.5445    1.4010 C.3       1 <1>        -0.1480 
       9 C5        -0.4604    0.5323    0.6872 C.3       1 <1>         0.1459 
      10 C6         0.4023    1.7280    1.1318 C.3       1 <1>        -0.1180 
      11 C7         0.5984    1.7129    2.6591 C.3       1 <1>        -0.1181 
      12 N2        -0.6678    0.5701   -0.7674 N.pl3     1 <1>        -1.1224 
      13 S2        -0.1016   -0.7508   -1.7660 S.o2      1 <1>         2.6132 
      14 O3        -0.5104   -0.5337   -3.1190 O.2       1 <1>        -0.9589 
      15 O4         1.3255   -0.8170   -1.7032 O.2       1 <1>        -0.9559 
      16 C8        -0.8058   -2.3057   -1.1639 C.3       1 <1>        -0.6870 
      17 H1         0.8310   -0.3737    7.7757 H         1 <1>         0.1268 
      18 H2         0.8786    1.3901    7.5642 H         1 <1>         0.1299 
      19 H3        -0.6812    0.5590    7.7485 H         1 <1>         0.1290 
      20 H4        -0.9053    2.4055    5.4241 H         1 <1>         0.4413 
      21 H5        -1.2734    2.6599    3.1364 H         1 <1>         0.0955 
      22 H6        -1.1475   -0.4021    3.2260 H         1 <1>         0.0795 
      23 H7        -2.5992    0.5702    3.4257 H         1 <1>         0.0718 
      24 H8        -2.3758    1.4373    1.1126 H         1 <1>         0.0718 
      25 H9        -2.4049   -0.3215    1.0886 H         1 <1>         0.0797 
      26 H10        0.0627   -0.3876    0.9398 H         1 <1>         0.0955 
      27 H11       -0.0841    2.6554    0.8367 H         1 <1>         0.0813 
      28 H12        1.3672    1.6825    0.6314 H         1 <1>         0.0755 
      29 H13        1.1483    0.8187    2.9449 H         1 <1>         0.0813 
      30 H14        1.1815    2.5774    2.9696 H         1 <1>         0.0754 
      31 H15       -1.1369    1.3585   -1.1901 H         1 <1>         0.4413 
      32 H16       -1.8910   -2.2588   -1.2239 H         1 <1>         0.1298 
      33 H17       -0.4432   -3.1285   -1.7764 H         1 <1>         0.1291 
      34 H18       -0.5055   -2.4627   -0.1299 H         1 <1>         0.1269 
@<TRIPOS>BOND
       1        1        2 1        
       2        1       17 1        
       3        1       18 1        
       4        1       19 1        
       5        2        3 2        
       6        2        4 2        
       7        2        5 1        
       8        5        6 1        
       9        5       20 1        
      10        6       11 1        
      11        6        7 1        
      12        6       21 1        
      13        7        8 1        
      14        7       22 1        
      15        7       23 1        
      16        8        9 1        
      17        8       24 1        
      18        8       25 1        
      19        9       10 1        
      20        9       12 1        
      21        9       26 1        
      22       10       11 1        
      23       10       27 1        
      24       10       28 1        
      25       11       29 1        
      26       11       30 1        
      27       12       13 1        
      28       12       31 1        
      29       13       14 2        
      30       13       15 2        
      31       13       16 1        
      32       16       32 1        
      33       16       33 1        
      34       16       34 1        

