#        1GCZ_R01_S0001_C0000_L00016_S0001_C0007_G0010_E0001.mol2
#        Tue Jun  6 10:00:51 2017
#        Descriptor:      8     6    17     7    10    14
#        Energy - RMSD - RMSD MassCentre:     -37.5536    999.9999    999.9999
#        Receptor:       1  Surface Point:     1  Conformer:     0
#        Ligand:        16  Surface Point:     1  Conformer:     7
#        BUDE Formal Charge: 0
#        ATOM Count: 34
#        Heavy ATOM Count: 16
@<TRIPOS>MOLECULE
ZINC01456998_1GCZ_R01_S0001_C0000_L00016_S0001_C0007_G0010_E0001
 34 34 1 0 0
SMALL
USER_CHARGES
INVALID_CHARGES
@<TRIPOS>ATOM
       1 C1         0.5293    1.1917    3.0149 C.3       1 <1>        -0.6866 
       2 S1         0.3644    0.1133    4.4591 S.o2      1 <1>         2.6131 
       3 O1         1.5447   -0.6824    4.5960 O.2       1 <1>        -0.9590 
       4 O2        -0.7691   -0.7420    4.2896 O.2       1 <1>        -0.9559 
       5 N1         0.1503    1.0893    5.8958 N.pl3     1 <1>        -1.1225 
       6 C2        -0.9416    2.0712    5.9607 C.3       1 <1>         0.1462 
       7 C3        -0.3494    3.4918    6.0907 C.3       1 <1>        -0.1478 
       8 C4         0.4200    3.6360    7.4167 C.3       1 <1>        -0.1480 
       9 C5        -0.5008    3.3186    8.6095 C.3       1 <1>         0.1459 
      10 C6        -1.0991    1.9054    8.4804 C.3       1 <1>        -0.1180 
      11 C7        -1.8667    1.7643    7.1530 C.3       1 <1>        -0.1181 
      12 N2        -1.5753    4.3193    8.6791 N.pl3     1 <1>        -1.1224 
      13 S2        -1.6929    5.3811   10.0652 S.o2      1 <1>         2.6132 
      14 O3        -2.7449    6.3261    9.8526 O.2       1 <1>        -0.9589 
      15 O4        -1.9746    4.6078   11.2345 O.2       1 <1>        -0.9559 
      16 C8        -0.1261    6.2601   10.2850 C.3       1 <1>        -0.6870 
      17 H1         0.6498    0.5834    2.1207 H         1 <1>         0.1268 
      18 H2        -0.3630    1.8066    2.9185 H         1 <1>         0.1299 
      19 H3         1.4001    1.8319    3.1386 H         1 <1>         0.1290 
      20 H4         0.7772    0.9776    6.6798 H         1 <1>         0.4413 
      21 H5        -1.5232    2.0094    5.0434 H         1 <1>         0.0955 
      22 H6         0.3207    3.6812    5.2548 H         1 <1>         0.0795 
      23 H7        -1.1534    4.2236    6.0460 H         1 <1>         0.0718 
      24 H8         0.7981    4.6516    7.5120 H         1 <1>         0.0718 
      25 H9         1.2723    2.9597    7.4272 H         1 <1>         0.0797 
      26 H10        0.0801    3.3683    9.5280 H         1 <1>         0.0955 
      27 H11       -1.7747    1.7206    9.3128 H         1 <1>         0.0813 
      28 H12       -0.2994    1.1693    8.5289 H         1 <1>         0.0755 
      29 H13       -2.2509    0.7506    7.0626 H         1 <1>         0.0813 
      30 H14       -2.7148    2.4458    7.1374 H         1 <1>         0.0754 
      31 H15       -2.2452    4.3935    7.9269 H         1 <1>         0.4413 
      32 H16        0.0810    6.8579    9.3999 H         1 <1>         0.1298 
      33 H17       -0.1947    6.9103   11.1547 H         1 <1>         0.1291 
      34 H18        0.6757    5.5395   10.4325 H         1 <1>         0.1269 
@<TRIPOS>BOND
       1        1        2 1        
       2        1       17 1        
       3        1       18 1        
       4        1       19 1        
       5        2        3 2        
       6        2        4 2        
       7        2        5 1        
       8        5        6 1        
       9        5       20 1        
      10        6       11 1        
      11        6        7 1        
      12        6       21 1        
      13        7        8 1        
      14        7       22 1        
      15        7       23 1        
      16        8        9 1        
      17        8       24 1        
      18        8       25 1        
      19        9       10 1        
      20        9       12 1        
      21        9       26 1        
      22       10       11 1        
      23       10       27 1        
      24       10       28 1        
      25       11       29 1        
      26       11       30 1        
      27       12       13 1        
      28       12       31 1        
      29       13       14 2        
      30       13       15 2        
      31       13       16 1        
      32       16       32 1        
      33       16       33 1        
      34       16       34 1        

