#        1GCZ_R01_S0001_C0000_L00016_S0001_C0007_G0010_E0001.mol2
#        Tue Jun  6 14:18:02 2017
#        Descriptor:     10     7    16     7    10    14
#        Energy - RMSD - RMSD MassCentre:     -37.1974    999.9999    999.9999
#        Receptor:       1  Surface Point:     1  Conformer:     0
#        Ligand:        16  Surface Point:     1  Conformer:     7
#        BUDE Formal Charge: 0
#        ATOM Count: 34
#        Heavy ATOM Count: 16
@<TRIPOS>MOLECULE
ZINC01456998_1GCZ_R01_S0001_C0000_L00016_S0001_C0007_G0010_E0001
 34 34 1 0 0
SMALL
USER_CHARGES
INVALID_CHARGES
@<TRIPOS>ATOM
       1 C1         0.0220    1.0733    2.8378 C.3       1 <1>        -0.6866 
       2 S1         0.3070    0.1496    4.3680 S.o2      1 <1>         2.6131 
       3 O1         1.5977   -0.4640    4.3200 O.2       1 <1>        -0.9590 
       4 O2        -0.6952   -0.8606    4.5097 O.2       1 <1>        -0.9559 
       5 N1         0.2321    1.2424    5.7328 N.pl3     1 <1>        -1.1225 
       6 C2        -0.9619    2.0734    5.9437 C.3       1 <1>         0.1462 
       7 C3        -0.5774    3.5651    5.8302 C.3       1 <1>        -0.1478 
       8 C4         0.4051    3.9554    6.9498 C.3       1 <1>        -0.1480 
       9 C5        -0.2066    3.6542    8.3306 C.3       1 <1>         0.1459 
      10 C6        -0.5980    2.1692    8.4456 C.3       1 <1>        -0.1180 
      11 C7        -1.5794    1.7820    7.3239 C.3       1 <1>        -0.1181 
      12 N2        -1.3857    4.5065    8.5409 N.pl3     1 <1>        -1.1224 
      13 S2        -1.3898    5.6909    9.8292 S.o2      1 <1>         2.6132 
      14 O3        -2.5936    6.4601    9.7644 O.2       1 <1>        -0.9589 
      15 O4        -1.3178    5.0219   11.0909 O.2       1 <1>        -0.9559 
      16 C8         0.0385    6.7870    9.6441 C.3       1 <1>        -0.6870 
      17 H1         0.0563    0.3907    1.9911 H         1 <1>         0.1268 
      18 H2        -0.9545    1.5511    2.8799 H         1 <1>         0.1299 
      19 H3         0.7932    1.8320    2.7239 H         1 <1>         0.1290 
      20 H4         1.0094    1.3018    6.3750 H         1 <1>         0.4413 
      21 H5        -1.6950    1.8344    5.1763 H         1 <1>         0.0955 
      22 H6        -0.1197    3.7469    4.8601 H         1 <1>         0.0795 
      23 H7        -1.4758    4.1754    5.8946 H         1 <1>         0.0718 
      24 H8         0.6365    5.0161    6.8805 H         1 <1>         0.0718 
      25 H9         1.3353    3.4023    6.8374 H         1 <1>         0.0797 
      26 H10        0.5279    3.8814    9.1003 H         1 <1>         0.0955 
      27 H11       -1.0624    1.9907    9.4131 H         1 <1>         0.0813 
      28 H12        0.2977    1.5544    8.3861 H         1 <1>         0.0755 
      29 H13       -1.8161    0.7229    7.3992 H         1 <1>         0.0813 
      30 H14       -2.5073    2.3402    7.4301 H         1 <1>         0.0754 
      31 H15       -2.1928    4.4082    7.9418 H         1 <1>         0.4413 
      32 H16       -0.0238    7.3049    8.6893 H         1 <1>         0.1298 
      33 H17        0.0434    7.5151   10.4526 H         1 <1>         0.1291 
      34 H18        0.9532    6.1988    9.6793 H         1 <1>         0.1269 
@<TRIPOS>BOND
       1        1        2 1        
       2        1       17 1        
       3        1       18 1        
       4        1       19 1        
       5        2        3 2        
       6        2        4 2        
       7        2        5 1        
       8        5        6 1        
       9        5       20 1        
      10        6       11 1        
      11        6        7 1        
      12        6       21 1        
      13        7        8 1        
      14        7       22 1        
      15        7       23 1        
      16        8        9 1        
      17        8       24 1        
      18        8       25 1        
      19        9       10 1        
      20        9       12 1        
      21        9       26 1        
      22       10       11 1        
      23       10       27 1        
      24       10       28 1        
      25       11       29 1        
      26       11       30 1        
      27       12       13 1        
      28       12       31 1        
      29       13       14 2        
      30       13       15 2        
      31       13       16 1        
      32       16       32 1        
      33       16       33 1        
      34       16       34 1        

