#        1GCZ_R01_S0001_C0000_L00016_S0001_C0008_G0010_E0001.mol2
#        Tue Jun  6 10:00:52 2017
#        Descriptor:     30    10    32     6    10    12
#        Energy - RMSD - RMSD MassCentre:     -39.7784    999.9999    999.9999
#        Receptor:       1  Surface Point:     1  Conformer:     0
#        Ligand:        16  Surface Point:     1  Conformer:     8
#        BUDE Formal Charge: 0
#        ATOM Count: 34
#        Heavy ATOM Count: 16
@<TRIPOS>MOLECULE
ZINC01456998_1GCZ_R01_S0001_C0000_L00016_S0001_C0008_G0010_E0001
 34 34 1 0 0
SMALL
USER_CHARGES
INVALID_CHARGES
@<TRIPOS>ATOM
       1 C1        -1.6167    1.0919    0.6937 C.3       1 <1>        -0.6866 
       2 S1        -1.0525    0.1519    2.1339 S.o2      1 <1>         2.6131 
       3 O1         0.1979   -0.4735    1.8337 O.2       1 <1>        -0.9590 
       4 O2        -2.0198   -0.8500    2.4591 O.2       1 <1>        -0.9559 
       5 N1        -0.8509    1.2331    3.4951 N.pl3     1 <1>        -1.1225 
       6 C2        -0.4121    0.7043    4.7944 C.3       1 <1>         0.1462 
       7 C3        -1.5234    0.9287    5.8433 C.3       1 <1>        -0.1478 
       8 C4        -1.7601    2.4342    6.0645 C.3       1 <1>        -0.1480 
       9 C5        -0.4540    3.1253    6.4984 C.3       1 <1>         0.1459 
      10 C6         0.6590    2.8982    5.4586 C.3       1 <1>        -0.1180 
      11 C7         0.8921    1.3918    5.2390 C.3       1 <1>        -0.1181 
      12 N2        -0.0367    2.6062    7.8089 N.pl3     1 <1>        -1.1224 
      13 S2         0.0285    3.6757    9.1925 S.o2      1 <1>         2.6132 
      14 O3         0.3572    2.9212   10.3619 O.2       1 <1>        -0.9589 
      15 O4         1.0261    4.6766    8.9738 O.2       1 <1>        -0.9559 
      16 C8        -1.5832    4.4681    9.4177 C.3       1 <1>        -0.6870 
      17 H1        -1.7537    0.4166   -0.1484 H         1 <1>         0.1268 
      18 H2        -2.5614    1.5786    0.9266 H         1 <1>         0.1299 
      19 H3        -0.8735    1.8443    0.4386 H         1 <1>         0.1290 
      20 H4        -1.0361    2.2201    3.3873 H         1 <1>         0.4413 
      21 H5        -0.2267   -0.3630    4.6938 H         1 <1>         0.0955 
      22 H6        -2.4430    0.4589    5.5009 H         1 <1>         0.0795 
      23 H7        -1.2364    0.4560    6.7803 H         1 <1>         0.0718 
      24 H8        -2.5170    2.5768    6.8327 H         1 <1>         0.0718 
      25 H9        -2.1244    2.8918    5.1471 H         1 <1>         0.0797 
      26 H10       -0.6328    4.1946    6.5892 H         1 <1>         0.0955 
      27 H11        1.5797    3.3619    5.8061 H         1 <1>         0.0813 
      28 H12        0.3787    3.3728    4.5206 H         1 <1>         0.0755 
      29 H13        1.6550    1.2507    4.4763 H         1 <1>         0.0813 
      30 H14        1.2489    0.9310    6.1578 H         1 <1>         0.0754 
      31 H15        0.2121    1.6327    7.9101 H         1 <1>         0.4413 
      32 H16       -2.3393    3.7065    9.5964 H         1 <1>         0.1298 
      33 H17       -1.5388    5.1431   10.2699 H         1 <1>         0.1291 
      34 H18       -1.8386    5.0303    8.5218 H         1 <1>         0.1269 
@<TRIPOS>BOND
       1        1        2 1        
       2        1       17 1        
       3        1       18 1        
       4        1       19 1        
       5        2        3 2        
       6        2        4 2        
       7        2        5 1        
       8        5        6 1        
       9        5       20 1        
      10        6       11 1        
      11        6        7 1        
      12        6       21 1        
      13        7        8 1        
      14        7       22 1        
      15        7       23 1        
      16        8        9 1        
      17        8       24 1        
      18        8       25 1        
      19        9       10 1        
      20        9       12 1        
      21        9       26 1        
      22       10       11 1        
      23       10       27 1        
      24       10       28 1        
      25       11       29 1        
      26       11       30 1        
      27       12       13 1        
      28       12       31 1        
      29       13       14 2        
      30       13       15 2        
      31       13       16 1        
      32       16       32 1        
      33       16       33 1        
      34       16       34 1        

