#        1GCZ_R01_S0001_C0000_L00016_S0001_C0008_G0010_E0001.mol2
#        Tue Jun  6 14:18:03 2017
#        Descriptor:     12     8    13     7    10    12
#        Energy - RMSD - RMSD MassCentre:     -36.4127    999.9999    999.9999
#        Receptor:       1  Surface Point:     1  Conformer:     0
#        Ligand:        16  Surface Point:     1  Conformer:     8
#        BUDE Formal Charge: 0
#        ATOM Count: 34
#        Heavy ATOM Count: 16
@<TRIPOS>MOLECULE
ZINC01456998_1GCZ_R01_S0001_C0000_L00016_S0001_C0008_G0010_E0001
 34 34 1 0 0
SMALL
USER_CHARGES
INVALID_CHARGES
@<TRIPOS>ATOM
       1 C1        -0.7802    1.0392    0.6937 C.3       1 <1>        -0.6866 
       2 S1        -0.3878    0.0155    2.1339 S.o2      1 <1>         2.6131 
       3 O1         0.7350   -0.8176    1.8337 O.2       1 <1>        -0.9590 
       4 O2        -1.5143   -0.8032    2.4591 O.2       1 <1>        -0.9559 
       5 N1        -0.0015    1.0453    3.4951 N.pl3     1 <1>        -1.1225 
       6 C2         0.3388    0.4482    4.7944 C.3       1 <1>         0.1462 
       7 C3        -0.7167    0.8622    5.8433 C.3       1 <1>        -0.1478 
       8 C4        -0.6883    2.3859    6.0645 C.3       1 <1>        -0.1480 
       9 C5         0.7179    2.8397    6.4984 C.3       1 <1>         0.1459 
      10 C6         1.7746    2.4228    5.4586 C.3       1 <1>        -0.1180 
      11 C7         1.7425    0.8989    5.2390 C.3       1 <1>        -0.1181 
      12 N2         1.0387    2.2561    7.8089 N.pl3     1 <1>        -1.1224 
      13 S2         1.2887    3.2980    9.1925 S.o2      1 <1>         2.6132 
      14 O3         1.4814    2.4979   10.3619 O.2       1 <1>        -0.9589 
      15 O4         2.4450    4.1104    8.9738 O.2       1 <1>        -0.9559 
      16 C8        -0.1609    4.3583    9.4177 C.3       1 <1>        -0.6870 
      17 H1        -1.0324    0.3979   -0.1484 H         1 <1>         0.1268 
      18 H2        -1.6260    1.6825    0.9266 H         1 <1>         0.1299 
      19 H3         0.0824    1.6510    0.4386 H         1 <1>         0.1290 
      20 H4        -0.0126    2.0494    3.3873 H         1 <1>         0.4413 
      21 H5         0.3361   -0.6350    4.6938 H         1 <1>         0.0955 
      22 H6        -1.7039    0.5592    5.5009 H         1 <1>         0.0795 
      23 H7        -0.5161    0.3469    6.7803 H         1 <1>         0.0718 
      24 H8        -1.4090    2.6578    6.8327 H         1 <1>         0.0718 
      25 H9        -0.9677    2.8999    5.1471 H         1 <1>         0.0797 
      26 H10        0.7275    3.9238    6.5892 H         1 <1>         0.0955 
      27 H11        2.7618    2.7196    5.8061 H         1 <1>         0.0813 
      28 H12        1.5809    2.9389    4.5206 H         1 <1>         0.0755 
      29 H13        2.4693    0.6274    4.4763 H         1 <1>         0.0813 
      30 H14        2.0139    0.3831    6.1578 H         1 <1>         0.0754 
      31 H15        1.1147    1.2542    7.9101 H         1 <1>         0.4413 
      32 H16       -1.0378    3.7394    9.5964 H         1 <1>         0.1298 
      33 H17       -0.0000    5.0153   10.2699 H         1 <1>         0.1291 
      34 H18       -0.3148    4.9562    8.5218 H         1 <1>         0.1269 
@<TRIPOS>BOND
       1        1        2 1        
       2        1       17 1        
       3        1       18 1        
       4        1       19 1        
       5        2        3 2        
       6        2        4 2        
       7        2        5 1        
       8        5        6 1        
       9        5       20 1        
      10        6       11 1        
      11        6        7 1        
      12        6       21 1        
      13        7        8 1        
      14        7       22 1        
      15        7       23 1        
      16        8        9 1        
      17        8       24 1        
      18        8       25 1        
      19        9       10 1        
      20        9       12 1        
      21        9       26 1        
      22       10       11 1        
      23       10       27 1        
      24       10       28 1        
      25       11       29 1        
      26       11       30 1        
      27       12       13 1        
      28       12       31 1        
      29       13       14 2        
      30       13       15 2        
      31       13       16 1        
      32       16       32 1        
      33       16       33 1        
      34       16       34 1        

