#        1GCZ_R01_S0001_C0000_L00003_S0001_C0034_G0010_E0001.mol2
#        Tue Jun  6 09:55:05 2017
#        Descriptor:      1    21     8     9     7    13
#        Energy - RMSD - RMSD MassCentre:     -65.1532    999.9999    999.9999
#        Receptor:       1  Surface Point:     1  Conformer:     0
#        Ligand:         3  Surface Point:     1  Conformer:    34
#        BUDE Formal Charge: 0
#        ATOM Count: 58
#        Heavy ATOM Count: 30
@<TRIPOS>MOLECULE
ZINC61580633_1GCZ_R01_S0001_C0000_L00003_S0001_C0034_G0010_E0001
 58 59 0 0 0
SMALL
USER_CHARGES
@<TRIPOS>ATOM
       1 C1         0.0774   -0.0556   -2.0039 C.3       1 <0>        -0.1532 
       2 C2         0.9821    0.2240   -0.8072 C.3       1 <0>        -0.1224 
       3 C3         0.6632    1.6068   -0.2409 C.3       1 <0>        -0.1198 
       4 C4        -0.7931    1.6440    0.2204 C.3       1 <0>         0.0610 
       5 O1        -0.9803    0.7035    1.2812 O.3       1 <0>        -0.3878 
       6 C5        -2.3294    0.6936    1.7553 C.3       1 <0>         0.0487 
       7 C6        -2.4644   -0.3276    2.8836 C.3       1 <0>         0.1244 
       8 N1        -1.7896    0.1806    4.0866 N.am      1 <0>        -0.7216 
       9 C7        -1.7792   -0.5469    5.2001 C.2       1 <0>         0.5161 
      10 O2        -2.3335   -1.6445    5.2239 O.2       1 <0>        -0.5151 
      11 C8        -1.0859   -0.0248    6.4359 C.3       1 <0>         0.0490 
      12 O3         0.3283   -0.0243    6.2239 O.3       1 <0>        -0.3194 
      13 C9         0.8218    0.7660    5.2469 C.2       1 <0>         0.5417 
      14 O4         0.0676    1.4514    4.5763 O.2       1 <0>        -0.5337 
      15 C10        2.2786    0.8007    4.9893 C.2       1 <0>        -0.2559 
      16 C11        2.9226    1.6187    3.9373 C.2       1 <0>        -0.0791 
      17 C12        4.2475    1.4572    3.9071 C.2       1 <0>        -0.2585 
      18 S1         4.8249    0.3217    5.1357 S.3       1 <0>         0.3028 
      19 C13        3.1617    0.0741    5.6877 C.2       1 <0>         0.0893 
      20 N2         2.7776   -0.7631    6.7019 N.am      1 <0>        -0.6099 
      21 C14        3.6903   -1.4651    7.3675 C.2       1 <0>         0.5551 
      22 O5         4.8800   -1.3625    7.0726 O.2       1 <0>        -0.4939 
      23 C15        3.2738   -2.3690    8.4629 C.ar      1 <0>        -0.1466 
      24 C16        4.2672   -3.0913    9.1349 C.ar      1 <0>        -0.0772 
      25 C17        3.9290   -4.0166   10.1295 C.ar      1 <0>        -0.1241 
      26 C18        2.5890   -4.2444   10.4637 C.ar      1 <0>        -0.0446 
      27 C19        1.5971   -3.4854    9.8311 C.ar      1 <0>        -0.1261 
      28 C20        1.9416   -2.5401    8.8576 C.ar      1 <0>        -0.0460 
      29 C21        2.2413   -5.2911   11.4952 C.3       1 <0>        -0.0928 
      30 C22        2.0281   -6.6344   10.8034 C.3       1 <0>        -0.1485 
      31 H1         0.2562    0.6907   -2.7751 H         1 <0>         0.0567 
      32 H2        -0.9632   -0.0107   -1.6894 H         1 <0>         0.0554 
      33 H3         0.2951   -1.0456   -2.3988 H         1 <0>         0.0557 
      34 H4         0.8131   -0.5290   -0.0403 H         1 <0>         0.0632 
      35 H5         2.0226    0.1934   -1.1234 H         1 <0>         0.0635 
      36 H6         1.3161    1.8126    0.6046 H         1 <0>         0.0711 
      37 H7         0.8182    2.3594   -1.0112 H         1 <0>         0.0704 
      38 H8        -1.0364    2.6432    0.5755 H         1 <0>         0.0498 
      39 H9        -1.4445    1.3854   -0.6118 H         1 <0>         0.0505 
      40 H10       -2.9987    0.4242    0.9410 H         1 <0>         0.0584 
      41 H11       -2.5906    1.6818    2.1282 H         1 <0>         0.0702 
      42 H12       -2.0057   -1.2664    2.5807 H         1 <0>         0.0872 
      43 H13       -3.5176   -0.4914    3.1013 H         1 <0>         0.0805 
      44 H14       -1.3341    1.0817    4.0683 H         1 <0>         0.4058 
      45 H15       -1.4218    0.9898    6.6396 H         1 <0>         0.1008 
      46 H16       -1.3247   -0.6636    7.2836 H         1 <0>         0.0999 
      47 H17        2.3646    2.2752    3.2863 H         1 <0>         0.1557 
      48 H18        4.8851    1.9810    3.2105 H         1 <0>         0.1929 
      49 H19        1.8008   -0.8474    6.9442 H         1 <0>         0.4317 
      50 H20        5.3059   -2.9381    8.8820 H         1 <0>         0.1287 
      51 H21        4.7043   -4.5634   10.6454 H         1 <0>         0.1326 
      52 H22        0.5641   -3.6367   10.1074 H         1 <0>         0.1342 
      53 H23        1.1405   -1.9434    8.4472 H         1 <0>         0.1410 
      54 H24        1.3297   -5.0003   12.0130 H         1 <0>         0.0777 
      55 H25        3.0549   -5.3768   12.2124 H         1 <0>         0.0771 
      56 H26        2.9443   -6.9300   10.2965 H         1 <0>         0.0623 
      57 H27        1.2238   -6.5437   10.0764 H         1 <0>         0.0572 
      58 H28        1.7646   -7.3856   11.5450 H         1 <0>         0.0578 
@<TRIPOS>BOND
       1        1        2 1        
       2        1       31 1        
       3        1       32 1        
       4        1       33 1        
       5        2        3 1        
       6        2       34 1        
       7        2       35 1        
       8        3        4 1        
       9        3       36 1        
      10        3       37 1        
      11        4        5 1        
      12        4       38 1        
      13        4       39 1        
      14        5        6 1        
      15        6        7 1        
      16        6       40 1        
      17        6       41 1        
      18        7        8 1        
      19        7       42 1        
      20        7       43 1        
      21        8        9 am       
      22        8       44 1        
      23        9       10 2        
      24        9       11 1        
      25       11       12 1        
      26       11       45 1        
      27       11       46 1        
      28       12       13 1        
      29       13       14 2        
      30       13       15 1        
      31       15       19 2        
      32       15       16 1        
      33       16       17 2        
      34       16       47 1        
      35       17       18 1        
      36       17       48 1        
      37       18       19 1        
      38       19       20 1        
      39       20       21 am       
      40       20       49 1        
      41       21       22 2        
      42       21       23 1        
      43       23       28 ar       
      44       23       24 ar       
      45       24       25 ar       
      46       24       50 1        
      47       25       26 ar       
      48       25       51 1        
      49       26       27 ar       
      50       26       29 1        
      51       27       28 ar       
      52       27       52 1        
      53       28       53 1        
      54       29       30 1        
      55       29       54 1        
      56       29       55 1        
      57       30       56 1        
      58       30       57 1        
      59       30       58 1        

