#        1GCZ_R01_S0001_C0000_L00016_S0001_C0009_G0010_E0001.mol2
#        Tue Jun  6 10:00:52 2017
#        Descriptor:     24    10     1     7    10    13
#        Energy - RMSD - RMSD MassCentre:     -36.3422    999.9999    999.9999
#        Receptor:       1  Surface Point:     1  Conformer:     0
#        Ligand:        16  Surface Point:     1  Conformer:     9
#        BUDE Formal Charge: 0
#        ATOM Count: 34
#        Heavy ATOM Count: 16
@<TRIPOS>MOLECULE
ZINC01456998_1GCZ_R01_S0001_C0000_L00016_S0001_C0009_G0010_E0001
 34 34 1 0 0
SMALL
USER_CHARGES
INVALID_CHARGES
@<TRIPOS>ATOM
       1 C1        -0.5713    1.5926    1.6010 C.3       1 <1>        -0.6866 
       2 S1        -0.2449    0.3512    2.8771 S.o2      1 <1>         2.6131 
       3 O1         0.9082   -0.4125    2.5140 O.2       1 <1>        -0.9590 
       4 O2        -1.3736   -0.5188    2.9967 O.2       1 <1>        -0.9559 
       5 N1         0.0431    1.1486    4.4080 N.pl3     1 <1>        -1.1225 
       6 C2        -0.9579    2.0772    4.9522 C.3       1 <1>         0.1462 
       7 C3        -0.3493    3.4938    5.0447 C.3       1 <1>        -0.1478 
       8 C4         0.8230    3.5129    6.0429 C.3       1 <1>        -0.1480 
       9 C5         0.3569    3.0289    7.4286 C.3       1 <1>         0.1459 
      10 C6        -0.2572    1.6194    7.3398 C.3       1 <1>        -0.1180 
      11 C7        -1.4283    1.6036    6.3400 C.3       1 <1>        -0.1181 
      12 N2        -0.6261    3.9763    7.9735 N.pl3     1 <1>        -1.1224 
      13 S2        -0.3368    5.6985    7.8600 S.o2      1 <1>         2.6132 
      14 O3        -0.3434    6.0925    6.4853 O.2       1 <1>        -0.9589 
      15 O4        -1.3648    6.4011    8.5631 O.2       1 <1>        -0.9559 
      16 C8         1.2715    6.0886    8.5928 C.3       1 <1>        -0.6870 
      17 H1        -0.7626    1.0951    0.6524 H         1 <1>         0.1268 
      18 H2        -1.4406    2.1824    1.8837 H         1 <1>         0.1299 
      19 H3         0.2935    2.2450    1.5009 H         1 <1>         0.1290 
      20 H4         0.8971    0.9704    4.9170 H         1 <1>         0.4413 
      21 H5        -1.8151    2.1000    4.2827 H         1 <1>         0.0955 
      22 H6         0.0006    3.8011    4.0615 H         1 <1>         0.0795 
      23 H7        -1.1174    4.1969    5.3600 H         1 <1>         0.0718 
      24 H8         1.2163    4.5238    6.1265 H         1 <1>         0.0718 
      25 H9         1.6254    2.8705    5.6860 H         1 <1>         0.0797 
      26 H10        1.2138    2.9940    8.0979 H         1 <1>         0.0955 
      27 H11       -0.6134    1.3168    8.3222 H         1 <1>         0.0813 
      28 H12        0.5082    0.9114    7.0289 H         1 <1>         0.0755 
      29 H13       -1.8256    0.5939    6.2633 H         1 <1>         0.0813 
      30 H14       -2.2284    2.2519    6.6913 H         1 <1>         0.0754 
      31 H15       -1.4680    3.6329    8.4133 H         1 <1>         0.4413 
      32 H16        2.0541    5.5633    8.0492 H         1 <1>         0.1298 
      33 H17        1.4456    7.1609    8.5342 H         1 <1>         0.1291 
      34 H18        1.2802    5.7755    9.6348 H         1 <1>         0.1269 
@<TRIPOS>BOND
       1        1        2 1        
       2        1       17 1        
       3        1       18 1        
       4        1       19 1        
       5        2        3 2        
       6        2        4 2        
       7        2        5 1        
       8        5        6 1        
       9        5       20 1        
      10        6       11 1        
      11        6        7 1        
      12        6       21 1        
      13        7        8 1        
      14        7       22 1        
      15        7       23 1        
      16        8        9 1        
      17        8       24 1        
      18        8       25 1        
      19        9       10 1        
      20        9       12 1        
      21        9       26 1        
      22       10       11 1        
      23       10       27 1        
      24       10       28 1        
      25       11       29 1        
      26       11       30 1        
      27       12       13 1        
      28       12       31 1        
      29       13       14 2        
      30       13       15 2        
      31       13       16 1        
      32       16       32 1        
      33       16       33 1        
      34       16       34 1        

