#        1GCZ_R01_S0001_C0000_L00016_S0001_C0009_G0010_E0001.mol2
#        Tue Jun  6 14:18:04 2017
#        Descriptor:     25    10    36     7    10    13
#        Energy - RMSD - RMSD MassCentre:     -36.4460    999.9999    999.9999
#        Receptor:       1  Surface Point:     1  Conformer:     0
#        Ligand:        16  Surface Point:     1  Conformer:     9
#        BUDE Formal Charge: 0
#        ATOM Count: 34
#        Heavy ATOM Count: 16
@<TRIPOS>MOLECULE
ZINC01456998_1GCZ_R01_S0001_C0000_L00016_S0001_C0009_G0010_E0001
 34 34 1 0 0
SMALL
USER_CHARGES
INVALID_CHARGES
@<TRIPOS>ATOM
       1 C1        -0.5636    1.4892    1.6160 C.3       1 <1>        -0.6866 
       2 S1        -0.2438    0.2860    2.9298 S.o2      1 <1>         2.6131 
       3 O1         0.9082   -0.4913    2.5930 O.2       1 <1>        -0.9590 
       4 O2        -1.3751   -0.5771    3.0726 O.2       1 <1>        -0.9559 
       5 N1         0.0423    1.1284    4.4367 N.pl3     1 <1>        -1.1225 
       6 C2        -0.9576    2.0757    4.9500 C.3       1 <1>         0.1462 
       7 C3        -0.3454    3.4928    5.0014 C.3       1 <1>        -0.1478 
       8 C4         0.8244    3.5389    6.0017 C.3       1 <1>        -0.1480 
       9 C5         0.3533    3.0982    7.4001 C.3       1 <1>         0.1459 
      10 C6        -0.2643    1.6882    7.3522 C.3       1 <1>        -0.1180 
      11 C7        -1.4328    1.6453    6.3502 C.3       1 <1>        -0.1181 
      12 N2        -0.6285    4.0641    7.9136 N.pl3     1 <1>        -1.1224 
      13 S2        -0.3343    5.7814    7.7490 S.o2      1 <1>         2.6132 
      14 O3        -0.3363    6.1337    6.3630 O.2       1 <1>        -0.9589 
      15 O4        -1.3623    6.5075    8.4278 O.2       1 <1>        -0.9559 
      16 C8         1.2731    6.1892    8.4740 C.3       1 <1>        -0.6870 
      17 H1        -0.7537    0.9638    0.6823 H         1 <1>         0.1268 
      18 H2        -1.4320    2.0895    1.8785 H         1 <1>         0.1299 
      19 H3         0.3033    2.1360    1.4986 H         1 <1>         0.1290 
      20 H4         0.8945    0.9634    4.9532 H         1 <1>         0.4413 
      21 H5        -1.8130    2.0805    4.2779 H         1 <1>         0.0955 
      22 H6         0.0078    3.7693    4.0103 H         1 <1>         0.0795 
      23 H7        -1.1125    4.2071    5.2933 H         1 <1>         0.0718 
      24 H8         1.2201    4.5508    6.0559 H         1 <1>         0.0718 
      25 H9         1.6259    2.8840    5.6665 H         1 <1>         0.0797 
      26 H10        1.2083    3.0812    8.0725 H         1 <1>         0.0955 
      27 H11       -0.6239    1.4163    8.3423 H         1 <1>         0.0813 
      28 H12        0.5000    0.9692    7.0648 H         1 <1>         0.0755 
      29 H13       -1.8327    0.6347    6.3029 H         1 <1>         0.0813 
      30 H14       -2.2321    2.3060    6.6797 H         1 <1>         0.0754 
      31 H15       -1.4725    3.7363    8.3612 H         1 <1>         0.4413 
      32 H16        2.0557    5.6457    7.9486 H         1 <1>         0.1298 
      33 H17        1.4502    7.2588    8.3836 H         1 <1>         0.1291 
      34 H18        1.2782    5.9076    9.5250 H         1 <1>         0.1269 
@<TRIPOS>BOND
       1        1        2 1        
       2        1       17 1        
       3        1       18 1        
       4        1       19 1        
       5        2        3 2        
       6        2        4 2        
       7        2        5 1        
       8        5        6 1        
       9        5       20 1        
      10        6       11 1        
      11        6        7 1        
      12        6       21 1        
      13        7        8 1        
      14        7       22 1        
      15        7       23 1        
      16        8        9 1        
      17        8       24 1        
      18        8       25 1        
      19        9       10 1        
      20        9       12 1        
      21        9       26 1        
      22       10       11 1        
      23       10       27 1        
      24       10       28 1        
      25       11       29 1        
      26       11       30 1        
      27       12       13 1        
      28       12       31 1        
      29       13       14 2        
      30       13       15 2        
      31       13       16 1        
      32       16       32 1        
      33       16       33 1        
      34       16       34 1        

