#        1GCZ_R01_S0001_C0000_L00016_S0001_C0010_G0010_E0001.mol2
#        Tue Jun  6 10:00:53 2017
#        Descriptor:     32    14    31     6    10    10
#        Energy - RMSD - RMSD MassCentre:     -45.4709    999.9999    999.9999
#        Receptor:       1  Surface Point:     1  Conformer:     0
#        Ligand:        16  Surface Point:     1  Conformer:    10
#        BUDE Formal Charge: 0
#        ATOM Count: 34
#        Heavy ATOM Count: 16
@<TRIPOS>MOLECULE
ZINC01456998_1GCZ_R01_S0001_C0000_L00016_S0001_C0010_G0010_E0001
 34 34 1 0 0
SMALL
USER_CHARGES
INVALID_CHARGES
@<TRIPOS>ATOM
       1 C1        -0.3931   -0.4176    0.1355 C.3       1 <1>        -0.6866 
       2 S1        -0.3833   -0.2756    1.9398 S.o2      1 <1>         2.6131 
       3 O1         0.9033   -0.6494    2.4395 O.2       1 <1>        -0.9590 
       4 O2        -1.3784   -1.1414    2.4924 O.2       1 <1>        -0.9559 
       5 N1        -0.7279    1.3779    2.3978 N.pl3     1 <1>        -1.1225 
       6 C2        -0.7917    1.7484    3.8188 C.3       1 <1>         0.1462 
       7 C3         0.5859    1.4579    4.4695 C.3       1 <1>        -0.1478 
       8 C4         0.5508    1.7994    5.9707 C.3       1 <1>        -0.1480 
       9 C5        -0.5666    1.0080    6.6758 C.3       1 <1>         0.1459 
      10 C6        -1.9347    1.2964    6.0303 C.3       1 <1>        -0.1180 
      11 C7        -1.9049    0.9558    4.5288 C.3       1 <1>        -0.1181 
      12 N2        -0.5940    1.3633    8.1018 N.pl3     1 <1>        -1.1224 
      13 S2        -0.9178    3.0136    8.5856 S.o2      1 <1>         2.6132 
      14 O3         0.0900    3.8737    8.0476 O.2       1 <1>        -0.9589 
      15 O4        -2.1992    3.4118    8.0912 O.2       1 <1>        -0.9559 
      16 C8        -0.9059    3.1249   10.3922 C.3       1 <1>        -0.6870 
      17 H1        -0.1911   -1.4486   -0.1477 H         1 <1>         0.1268 
      18 H2        -1.3677   -0.1203   -0.2457 H         1 <1>         0.1299 
      19 H3         0.3738    0.2308   -0.2828 H         1 <1>         0.1290 
      20 H4        -0.8828    2.0770    1.6856 H         1 <1>         0.4413 
      21 H5        -1.0172    2.8099    3.8944 H         1 <1>         0.0955 
      22 H6         0.8346    0.4070    4.3378 H         1 <1>         0.0795 
      23 H7         1.3535    2.0471    3.9723 H         1 <1>         0.0718 
      24 H8         0.3753    2.8653    6.0997 H         1 <1>         0.0718 
      25 H9         1.5083    1.5604    6.4288 H         1 <1>         0.0797 
      26 H10       -0.3568   -0.0558    6.5868 H         1 <1>         0.0955 
      27 H11       -2.1821    2.3479    6.1599 H         1 <1>         0.0813 
      28 H12       -2.7010    0.7084    6.5310 H         1 <1>         0.0755 
      29 H13       -1.7282   -0.1103    4.4027 H         1 <1>         0.0813 
      30 H14       -2.8642    1.1918    4.0729 H         1 <1>         0.0754 
      31 H15       -0.4261    0.6548    8.8017 H         1 <1>         0.4413 
      32 H16        0.0733    2.8337   10.7664 H         1 <1>         0.1298 
      33 H17       -1.1203    4.1482   10.6933 H         1 <1>         0.1291 
      34 H18       -1.6636    2.4595   10.8009 H         1 <1>         0.1269 
@<TRIPOS>BOND
       1        1        2 1        
       2        1       17 1        
       3        1       18 1        
       4        1       19 1        
       5        2        3 2        
       6        2        4 2        
       7        2        5 1        
       8        5        6 1        
       9        5       20 1        
      10        6       11 1        
      11        6        7 1        
      12        6       21 1        
      13        7        8 1        
      14        7       22 1        
      15        7       23 1        
      16        8        9 1        
      17        8       24 1        
      18        8       25 1        
      19        9       10 1        
      20        9       12 1        
      21        9       26 1        
      22       10       11 1        
      23       10       27 1        
      24       10       28 1        
      25       11       29 1        
      26       11       30 1        
      27       12       13 1        
      28       12       31 1        
      29       13       14 2        
      30       13       15 2        
      31       13       16 1        
      32       16       32 1        
      33       16       33 1        
      34       16       34 1        

