#        1GCZ_R01_S0001_C0000_L00016_S0001_C0010_G0010_E0001.mol2
#        Tue Jun  6 14:18:07 2017
#        Descriptor:     13     4    14     6    10    10
#        Energy - RMSD - RMSD MassCentre:     -43.8825    999.9999    999.9999
#        Receptor:       1  Surface Point:     1  Conformer:     0
#        Ligand:        16  Surface Point:     1  Conformer:    10
#        BUDE Formal Charge: 0
#        ATOM Count: 34
#        Heavy ATOM Count: 16
@<TRIPOS>MOLECULE
ZINC01456998_1GCZ_R01_S0001_C0000_L00016_S0001_C0010_G0010_E0001
 34 34 1 0 0
SMALL
USER_CHARGES
INVALID_CHARGES
@<TRIPOS>ATOM
       1 C1        -0.0729   -0.1289    0.0876 C.3       1 <1>        -0.6866 
       2 S1        -0.2372   -0.1624    1.8897 S.o2      1 <1>         2.6131 
       3 O1         1.0204   -0.5085    2.4758 O.2       1 <1>        -0.9590 
       4 O2        -1.2189   -1.1335    2.2618 O.2       1 <1>        -0.9559 
       5 N1        -0.7311    1.4163    2.4610 N.pl3     1 <1>        -1.1225 
       6 C2        -0.9487    1.6427    3.8970 C.3       1 <1>         0.1462 
       7 C3         0.3801    1.3700    4.6491 C.3       1 <1>        -0.1478 
       8 C4         0.1855    1.5616    6.1647 C.3       1 <1>        -0.1480 
       9 C5        -0.9366    0.6426    6.6828 C.3       1 <1>         0.1459 
      10 C6        -2.2562    0.9133    5.9365 C.3       1 <1>        -0.1180 
      11 C7        -2.0670    0.7224    4.4203 C.3       1 <1>        -0.1181 
      12 N2        -1.1175    0.8556    8.1258 N.pl3     1 <1>        -1.1224 
      13 S2        -1.5927    2.4299    8.7245 S.o2      1 <1>         2.6132 
      14 O3        -0.5993    3.3946    8.3675 O.2       1 <1>        -0.9589 
      15 O4        -2.8473    2.7999    8.1464 O.2       1 <1>        -0.9559 
      16 C8        -1.7532    2.3657   10.5262 C.3       1 <1>        -0.6870 
      17 H1         0.2220   -1.1142   -0.2675 H         1 <1>         0.1268 
      18 H2        -1.0263    0.1476   -0.3578 H         1 <1>         0.1299 
      19 H3         0.6843    0.6000   -0.1934 H         1 <1>         0.1290 
      20 H4        -0.8664    2.1712    1.8039 H         1 <1>         0.4413 
      21 H5        -1.2500    2.6772    4.0468 H         1 <1>         0.0955 
      22 H6         0.7089    0.3529    4.4468 H         1 <1>         0.0795 
      23 H7         1.1490    2.0478    4.2846 H         1 <1>         0.0718 
      24 H8        -0.0713    2.5981    6.3727 H         1 <1>         0.0718 
      25 H9         1.1110    1.3346    6.6898 H         1 <1>         0.0797 
      26 H10       -0.6494   -0.3937    6.5179 H         1 <1>         0.0955 
      27 H11       -2.5836    1.9313    6.1369 H         1 <1>         0.0813 
      28 H12       -3.0242    0.2364    6.3047 H         1 <1>         0.0755 
      29 H13       -1.8092   -0.3145    4.2151 H         1 <1>         0.0813 
      30 H14       -2.9942    0.9461    3.8968 H         1 <1>         0.0754 
      31 H15       -0.9675    0.0933    8.7712 H         1 <1>         0.4413 
      32 H16       -0.7950    2.0963   10.9657 H         1 <1>         0.1298 
      33 H17       -2.0615    3.3409   10.8972 H         1 <1>         0.1291 
      34 H18       -2.4991    1.6214   10.7970 H         1 <1>         0.1269 
@<TRIPOS>BOND
       1        1        2 1        
       2        1       17 1        
       3        1       18 1        
       4        1       19 1        
       5        2        3 2        
       6        2        4 2        
       7        2        5 1        
       8        5        6 1        
       9        5       20 1        
      10        6       11 1        
      11        6        7 1        
      12        6       21 1        
      13        7        8 1        
      14        7       22 1        
      15        7       23 1        
      16        8        9 1        
      17        8       24 1        
      18        8       25 1        
      19        9       10 1        
      20        9       12 1        
      21        9       26 1        
      22       10       11 1        
      23       10       27 1        
      24       10       28 1        
      25       11       29 1        
      26       11       30 1        
      27       12       13 1        
      28       12       31 1        
      29       13       14 2        
      30       13       15 2        
      31       13       16 1        
      32       16       32 1        
      33       16       33 1        
      34       16       34 1        

