#        1GCZ_R01_S0001_C0000_L00016_S0001_C0011_G0010_E0001.mol2
#        Tue Jun  6 10:00:54 2017
#        Descriptor:     13     7    14     6    10    11
#        Energy - RMSD - RMSD MassCentre:     -45.7108    999.9999    999.9999
#        Receptor:       1  Surface Point:     1  Conformer:     0
#        Ligand:        16  Surface Point:     1  Conformer:    11
#        BUDE Formal Charge: 0
#        ATOM Count: 34
#        Heavy ATOM Count: 16
@<TRIPOS>MOLECULE
ZINC01456998_1GCZ_R01_S0001_C0000_L00016_S0001_C0011_G0010_E0001
 34 34 1 0 0
SMALL
USER_CHARGES
INVALID_CHARGES
@<TRIPOS>ATOM
       1 C1        -1.0974    0.7308   -0.0785 C.3       1 <1>        -0.6866 
       2 S1        -0.5607    0.1090    1.5343 S.o2      1 <1>         2.6131 
       3 O1         0.7997   -0.3233    1.4489 O.2       1 <1>        -0.9590 
       4 O2        -1.3868   -0.9926    1.9205 O.2       1 <1>        -0.9559 
       5 N1        -0.6928    1.3841    2.7257 N.pl3     1 <1>        -1.1225 
       6 C2        -0.3283    1.1222    4.1253 C.3       1 <1>         0.1462 
       7 C3        -1.5913    0.7023    4.8211 C.3       1 <1>        -0.1478 
       8 C4        -1.5198    1.0272    6.3247 C.3       1 <1>        -0.1480 
       9 C5        -1.5068    2.5514    6.5449 C.3       1 <1>         0.1459 
      10 C6        -0.8214    3.2702    5.3679 C.3       1 <1>        -0.1180 
      11 C7         0.2829    2.3831    4.7640 C.3       1 <1>        -0.1181 
      12 N2        -0.8095    2.8591    7.8018 N.pl3     1 <1>        -1.1224 
      13 S2        -1.7292    3.2176    9.2468 S.o2      1 <1>         2.6132 
      14 O3        -0.8359    3.3784   10.3517 O.2       1 <1>        -0.9589 
      15 O4        -2.4701    4.4252    9.0519 O.2       1 <1>        -0.9559 
      16 C8        -2.8720    1.8558    9.5867 C.3       1 <1>        -0.6870 
      17 H1        -1.0267   -0.0665   -0.8157 H         1 <1>         0.1268 
      18 H2        -2.1281    1.0721   -0.0102 H         1 <1>         0.1299 
      19 H3        -0.4592    1.5595   -0.3777 H         1 <1>         0.1290 
      20 H4        -1.0193    2.2995    2.4510 H         1 <1>         0.4413 
      21 H5         0.4112    0.3248    4.1515 H         1 <1>         0.0955 
      22 H6        -2.4366    1.2204    4.3732 H         1 <1>         0.0795 
      23 H7        -1.7414   -0.3658    4.6785 H         1 <1>         0.0718 
      24 H8        -0.6180    0.5928    6.7507 H         1 <1>         0.0718 
      25 H9        -2.3749    0.5942    6.8396 H         1 <1>         0.0797 
      26 H10       -2.5322    2.9067    6.6205 H         1 <1>         0.0955 
      27 H11       -0.3871    4.2046    5.7173 H         1 <1>         0.0813 
      28 H12       -1.5640    3.5095    4.6096 H         1 <1>         0.0755 
      29 H13        0.8265    2.9456    4.0078 H         1 <1>         0.0813 
      30 H14        0.9912    2.0903    5.5362 H         1 <1>         0.0754 
      31 H15        0.2000    2.8635    7.8308 H         1 <1>         0.4413 
      32 H16       -2.3066    0.9402    9.7470 H         1 <1>         0.1298 
      33 H17       -3.4533    2.0847   10.4775 H         1 <1>         0.1291 
      34 H18       -3.5419    1.7253    8.7393 H         1 <1>         0.1269 
@<TRIPOS>BOND
       1        1        2 1        
       2        1       17 1        
       3        1       18 1        
       4        1       19 1        
       5        2        3 2        
       6        2        4 2        
       7        2        5 1        
       8        5        6 1        
       9        5       20 1        
      10        6       11 1        
      11        6        7 1        
      12        6       21 1        
      13        7        8 1        
      14        7       22 1        
      15        7       23 1        
      16        8        9 1        
      17        8       24 1        
      18        8       25 1        
      19        9       10 1        
      20        9       12 1        
      21        9       26 1        
      22       10       11 1        
      23       10       27 1        
      24       10       28 1        
      25       11       29 1        
      26       11       30 1        
      27       12       13 1        
      28       12       31 1        
      29       13       14 2        
      30       13       15 2        
      31       13       16 1        
      32       16       32 1        
      33       16       33 1        
      34       16       34 1        

