#        1GCZ_R01_S0001_C0000_L00016_S0001_C0011_G0010_E0001.mol2
#        Tue Jun  6 14:18:08 2017
#        Descriptor:     32    11    31     6    10    11
#        Energy - RMSD - RMSD MassCentre:     -41.7920    999.9999    999.9999
#        Receptor:       1  Surface Point:     1  Conformer:     0
#        Ligand:        16  Surface Point:     1  Conformer:    11
#        BUDE Formal Charge: 0
#        ATOM Count: 34
#        Heavy ATOM Count: 16
@<TRIPOS>MOLECULE
ZINC01456998_1GCZ_R01_S0001_C0000_L00016_S0001_C0011_G0010_E0001
 34 34 1 0 0
SMALL
USER_CHARGES
INVALID_CHARGES
@<TRIPOS>ATOM
       1 C1        -1.2408    0.5927   -0.0571 C.3       1 <1>        -0.6866 
       2 S1        -0.6423    0.0330    1.5567 S.o2      1 <1>         2.6131 
       3 O1         0.7091   -0.4179    1.4328 O.2       1 <1>        -0.9590 
       4 O2        -1.4618   -1.0420    2.0234 O.2       1 <1>        -0.9559 
       5 N1        -0.7115    1.3584    2.6974 N.pl3     1 <1>        -1.1225 
       6 C2        -0.2906    1.1512    4.0904 C.3       1 <1>         0.1462 
       7 C3        -1.5270    0.7752    4.8557 C.3       1 <1>        -0.1478 
       8 C4        -1.3887    1.1620    6.3398 C.3       1 <1>        -0.1480 
       9 C5        -1.3518    2.6939    6.4945 C.3       1 <1>         0.1459 
      10 C6        -0.7101    3.3549    5.2605 C.3       1 <1>        -0.1180 
      11 C7         0.3592    2.4307    4.6490 C.3       1 <1>        -0.1181 
      12 N2        -0.5990    3.0461    7.7070 N.pl3     1 <1>        -1.1224 
      13 S2        -1.4532    3.4752    9.1727 S.o2      1 <1>         2.6132 
      14 O3        -0.5124    3.6721   10.2315 O.2       1 <1>        -0.9589 
      15 O4        -2.1901    4.6819    8.9582 O.2       1 <1>        -0.9559 
      16 C8        -2.5936    2.1419    9.6176 C.3       1 <1>        -0.6870 
      17 H1        -1.2090   -0.2355   -0.7622 H         1 <1>         0.1268 
      18 H2        -2.2644    0.9483    0.0398 H         1 <1>         0.1299 
      19 H3        -0.6080    1.4008   -0.4176 H         1 <1>         0.1290 
      20 H4        -1.0407    2.2651    2.3982 H         1 <1>         0.4413 
      21 H5         0.4416    0.3473    4.1193 H         1 <1>         0.0955 
      22 H6        -2.3855    1.2837    4.4221 H         1 <1>         0.0795 
      23 H7        -1.6932   -0.2962    4.7649 H         1 <1>         0.0718 
      24 H8        -0.4739    0.7356    6.7457 H         1 <1>         0.0718 
      25 H9        -2.2254    0.7607    6.9080 H         1 <1>         0.0797 
      26 H10       -2.3697    3.0637    6.5979 H         1 <1>         0.0955 
      27 H11       -0.2524    4.2981    5.5515 H         1 <1>         0.0813 
      28 H12       -1.4818    3.5706    4.5246 H         1 <1>         0.0755 
      29 H13        0.8756    2.9549    3.8475 H         1 <1>         0.0813 
      30 H14        1.0967    2.1626    5.4025 H         1 <1>         0.0754 
      31 H15        0.4109    3.0402    7.6934 H         1 <1>         0.4413 
      32 H16       -2.0307    1.2275    9.7927 H         1 <1>         0.1298 
      33 H17       -3.1344    2.4145   10.5215 H         1 <1>         0.1291 
      34 H18       -3.3000    1.9837    8.8054 H         1 <1>         0.1269 
@<TRIPOS>BOND
       1        1        2 1        
       2        1       17 1        
       3        1       18 1        
       4        1       19 1        
       5        2        3 2        
       6        2        4 2        
       7        2        5 1        
       8        5        6 1        
       9        5       20 1        
      10        6       11 1        
      11        6        7 1        
      12        6       21 1        
      13        7        8 1        
      14        7       22 1        
      15        7       23 1        
      16        8        9 1        
      17        8       24 1        
      18        8       25 1        
      19        9       10 1        
      20        9       12 1        
      21        9       26 1        
      22       10       11 1        
      23       10       27 1        
      24       10       28 1        
      25       11       29 1        
      26       11       30 1        
      27       12       13 1        
      28       12       31 1        
      29       13       14 2        
      30       13       15 2        
      31       13       16 1        
      32       16       32 1        
      33       16       33 1        
      34       16       34 1        

