#        1GCZ_R01_S0001_C0000_L00016_S0001_C0012_G0010_E0001.mol2
#        Tue Jun  6 10:00:54 2017
#        Descriptor:      7     4    18     6    10    13
#        Energy - RMSD - RMSD MassCentre:     -36.4019    999.9999    999.9999
#        Receptor:       1  Surface Point:     1  Conformer:     0
#        Ligand:        16  Surface Point:     1  Conformer:    12
#        BUDE Formal Charge: 0
#        ATOM Count: 34
#        Heavy ATOM Count: 16
@<TRIPOS>MOLECULE
ZINC01456998_1GCZ_R01_S0001_C0000_L00016_S0001_C0012_G0010_E0001
 34 34 1 0 0
SMALL
USER_CHARGES
INVALID_CHARGES
@<TRIPOS>ATOM
       1 C1         0.5095    1.4892    2.6882 C.3       1 <1>        -0.6866 
       2 S1        -0.0900    0.2860    3.9002 S.o2      1 <1>         2.6131 
       3 O1         1.0090   -0.4913    4.3827 O.2       1 <1>        -0.9590 
       4 O2        -1.0484   -0.5771    3.2824 O.2       1 <1>        -0.9559 
       5 N1        -0.8395    1.1284    5.2385 N.pl3     1 <1>        -1.1225 
       6 C2        -0.0912    2.1631    5.9666 C.3       1 <1>         0.1462 
       7 C3        -0.1179    1.8776    7.4280 C.3       1 <1>        -0.1478 
       8 C4        -1.3439    2.5451    8.0783 C.3       1 <1>        -0.1480 
       9 C5        -1.2017    4.0782    8.0452 C.3       1 <1>         0.1459 
      10 C6        -0.4086    4.5292    6.8046 C.3       1 <1>        -0.1180 
      11 C7        -0.6460    3.5600    5.6315 C.3       1 <1>        -0.1181 
      12 N2        -0.5292    4.5347    9.2700 N.pl3     1 <1>        -1.1224 
      13 S2        -1.1921    5.8706   10.1855 S.o2      1 <1>         2.6132 
      14 O3        -2.4635    5.4955   10.7219 O.2       1 <1>        -0.9589 
      15 O4        -0.3022    6.2031   11.2543 O.2       1 <1>        -0.9559 
      16 C8        -1.3937    7.3042    9.0989 C.3       1 <1>        -0.6870 
      17 H1         0.9641    0.9638    1.8508 H         1 <1>         0.1268 
      18 H2        -0.3245    2.0895    2.3310 H         1 <1>         0.1299 
      19 H3         1.2490    2.1360    3.1555 H         1 <1>         0.1290 
      20 H4        -1.7858    0.9033    5.5101 H         1 <1>         0.4413 
      21 H5         0.9524    2.1203    5.6622 H         1 <1>         0.0955 
      22 H6        -0.1577    0.8022    7.5875 H         1 <1>         0.0795 
      23 H7         0.7953    2.2494    7.8879 H         1 <1>         0.0718 
      24 H8        -1.4373    2.2129    9.1100 H         1 <1>         0.0718 
      25 H9        -2.2495    2.2538    7.5501 H         1 <1>         0.0797 
      26 H10       -2.1930    4.5246    8.0062 H         1 <1>         0.0955 
      27 H11        0.6523    4.5584    7.0434 H         1 <1>         0.0813 
      28 H12       -0.7164    5.5348    6.5257 H         1 <1>         0.0755 
      29 H13       -1.7128    3.4882    5.4311 H         1 <1>         0.0813 
      30 H14       -0.1615    3.9356    4.7326 H         1 <1>         0.0754 
      31 H15        0.3153    4.0770    9.5825 H         1 <1>         0.4413 
      32 H16       -2.0806    7.0539    8.2932 H         1 <1>         0.1298 
      33 H17       -1.7933    8.1387    9.6711 H         1 <1>         0.1291 
      34 H18       -0.4279    7.5798    8.6804 H         1 <1>         0.1269 
@<TRIPOS>BOND
       1        1        2 1        
       2        1       17 1        
       3        1       18 1        
       4        1       19 1        
       5        2        3 2        
       6        2        4 2        
       7        2        5 1        
       8        5        6 1        
       9        5       20 1        
      10        6       11 1        
      11        6        7 1        
      12        6       21 1        
      13        7        8 1        
      14        7       22 1        
      15        7       23 1        
      16        8        9 1        
      17        8       24 1        
      18        8       25 1        
      19        9       10 1        
      20        9       12 1        
      21        9       26 1        
      22       10       11 1        
      23       10       27 1        
      24       10       28 1        
      25       11       29 1        
      26       11       30 1        
      27       12       13 1        
      28       12       31 1        
      29       13       14 2        
      30       13       15 2        
      31       13       16 1        
      32       16       32 1        
      33       16       33 1        
      34       16       34 1        

