#        1GCZ_R01_S0001_C0000_L00016_S0001_C0013_G0010_E0001.mol2
#        Tue Jun  6 10:00:55 2017
#        Descriptor:      8     6    18     6     9    11
#        Energy - RMSD - RMSD MassCentre:     -38.6039    999.9999    999.9999
#        Receptor:       1  Surface Point:     1  Conformer:     0
#        Ligand:        16  Surface Point:     1  Conformer:    13
#        BUDE Formal Charge: 0
#        ATOM Count: 34
#        Heavy ATOM Count: 16
@<TRIPOS>MOLECULE
ZINC01456998_1GCZ_R01_S0001_C0000_L00016_S0001_C0013_G0010_E0001
 34 34 1 0 0
SMALL
USER_CHARGES
INVALID_CHARGES
@<TRIPOS>ATOM
       1 C1        -0.3536    0.4695    0.0149 C.3       1 <1>        -0.6866 
       2 S1        -0.3287   -0.6211    1.4591 S.o2      1 <1>         2.6131 
       3 O1         0.9718   -1.1997    1.5960 O.2       1 <1>        -0.9590 
       4 O2        -1.2964   -1.6602    1.2896 O.2       1 <1>        -0.9559 
       5 N1        -0.7090    0.3029    2.8958 N.pl3     1 <1>        -1.1225 
       6 C2         0.0739    1.5023    3.2264 C.3       1 <1>         0.1462 
       7 C3         1.1828    1.0488    4.1319 C.3       1 <1>        -0.1478 
       8 C4         1.6479    2.1995    5.0435 C.3       1 <1>        -0.1480 
       9 C5         0.5360    2.5789    6.0393 C.3       1 <1>         0.1459 
      10 C6        -0.8558    2.3337    5.4276 C.3       1 <1>        -0.1180 
      11 C7        -0.8218    2.5558    3.9041 C.3       1 <1>        -0.1181 
      12 N2         0.6803    3.9912    6.4204 N.pl3     1 <1>        -1.1224 
      13 S2         1.4247    4.4133    7.9470 S.o2      1 <1>         2.6132 
      14 O3         1.5443    5.8352    8.0409 O.2       1 <1>        -0.9589 
      15 O4         0.6140    3.9301    9.0213 O.2       1 <1>        -0.9559 
      16 C8         3.0679    3.6607    8.0441 C.3       1 <1>        -0.6870 
      17 H1        -0.1293   -0.1086   -0.8793 H         1 <1>         0.1268 
      18 H2        -1.3391    0.9201   -0.0815 H         1 <1>         0.1299 
      19 H3         0.3929    1.2512    0.1386 H         1 <1>         0.1290 
      20 H4        -1.4663    0.0117    3.4973 H         1 <1>         0.4413 
      21 H5         0.4735    1.9243    2.3067 H         1 <1>         0.0955 
      22 H6         0.8320    0.2176    4.7399 H         1 <1>         0.0795 
      23 H7         2.0155    0.6927    3.5289 H         1 <1>         0.0718 
      24 H8         1.9019    3.0667    4.4378 H         1 <1>         0.0718 
      25 H9         2.5392    1.9021    5.5920 H         1 <1>         0.0797 
      26 H10        0.6368    1.9660    6.9326 H         1 <1>         0.0955 
      27 H11       -1.5749    3.0144    5.8785 H         1 <1>         0.0813 
      28 H12       -1.1733    1.3170    5.6493 H         1 <1>         0.0755 
      29 H13       -1.8313    2.4846    3.5049 H         1 <1>         0.0813 
      30 H14       -0.4430    3.5508    3.6799 H         1 <1>         0.0754 
      31 H15        0.3497    4.7173    5.8011 H         1 <1>         0.4413 
      32 H16        3.6876    4.0385    7.2336 H         1 <1>         0.1298 
      33 H17        3.5253    3.9121    8.9987 H         1 <1>         0.1291 
      34 H18        2.9768    2.5799    7.9583 H         1 <1>         0.1269 
@<TRIPOS>BOND
       1        1        2 1        
       2        1       17 1        
       3        1       18 1        
       4        1       19 1        
       5        2        3 2        
       6        2        4 2        
       7        2        5 1        
       8        5        6 1        
       9        5       20 1        
      10        6       11 1        
      11        6        7 1        
      12        6       21 1        
      13        7        8 1        
      14        7       22 1        
      15        7       23 1        
      16        8        9 1        
      17        8       24 1        
      18        8       25 1        
      19        9       10 1        
      20        9       12 1        
      21        9       26 1        
      22       10       11 1        
      23       10       27 1        
      24       10       28 1        
      25       11       29 1        
      26       11       30 1        
      27       12       13 1        
      28       12       31 1        
      29       13       14 2        
      30       13       15 2        
      31       13       16 1        
      32       16       32 1        
      33       16       33 1        
      34       16       34 1        

