#        1GCZ_R01_S0001_C0000_L00016_S0001_C0013_G0010_E0001.mol2
#        Tue Jun  6 14:18:11 2017
#        Descriptor:     19    34    29    11    10    15
#        Energy - RMSD - RMSD MassCentre:     -36.7938    999.9999    999.9999
#        Receptor:       1  Surface Point:     1  Conformer:     0
#        Ligand:        16  Surface Point:     1  Conformer:    13
#        BUDE Formal Charge: 0
#        ATOM Count: 34
#        Heavy ATOM Count: 16
@<TRIPOS>MOLECULE
ZINC01456998_1GCZ_R01_S0001_C0000_L00016_S0001_C0013_G0010_E0001
 34 34 1 0 0
SMALL
USER_CHARGES
INVALID_CHARGES
@<TRIPOS>ATOM
       1 C1         1.8540    4.8015    8.6556 C.3       1 <1>        -0.6866 
       2 S1         1.3349    3.0939    8.9561 S.o2      1 <1>         2.6131 
       3 O1        -0.0611    3.0683    9.2649 O.2       1 <1>        -0.9590 
       4 O2         2.0753    2.5560   10.0550 O.2       1 <1>        -0.9559 
       5 N1         1.6322    2.1322    7.5246 N.pl3     1 <1>        -1.1225 
       6 C2         1.0737    2.5492    6.2305 C.3       1 <1>         0.1462 
       7 C3        -0.2527    1.8576    6.0981 C.3       1 <1>        -0.1478 
       8 C4        -0.6229    1.6663    4.6156 C.3       1 <1>        -0.1480 
       9 C5         0.3424    0.6712    3.9449 C.3       1 <1>         0.1459 
      10 C6         1.7389    0.7413    4.5903 C.3       1 <1>        -0.1180 
      11 C7         2.0322    2.1693    5.0867 C.3       1 <1>        -0.1181 
      12 N2         0.4327    0.9685    2.5083 N.pl3     1 <1>        -1.1224 
      13 S2        -0.4723    0.0088    1.3581 S.o2      1 <1>         2.6132 
      14 O3        -0.3037    0.5537    0.0469 O.2       1 <1>        -0.9589 
      15 O4         0.0070   -1.3382    1.3810 O.2       1 <1>        -0.9559 
      16 C8        -2.2269    0.0335    1.8019 C.3       1 <1>        -0.6870 
      17 H1         1.6802    5.3956    9.5505 H         1 <1>         0.1268 
      18 H2         2.9131    4.8196    8.4075 H         1 <1>         0.1299 
      19 H3         1.2800    5.2142    7.8287 H         1 <1>         0.1290 
      20 H4         2.1875    1.2910    7.5882 H         1 <1>         0.4413 
      21 H5         0.9477    3.6299    6.2352 H         1 <1>         0.0955 
      22 H6        -0.2031    0.8894    6.5920 H         1 <1>         0.0795 
      23 H7        -1.0170    2.4484    6.5987 H         1 <1>         0.0718 
      24 H8        -0.5724    2.6225    4.0994 H         1 <1>         0.0718 
      25 H9        -1.6420    1.2946    4.5320 H         1 <1>         0.0797 
      26 H10       -0.0476   -0.3371    4.0672 H         1 <1>         0.0955 
      27 H11        2.4906    0.4482    3.8605 H         1 <1>         0.0813 
      28 H12        1.7881    0.0403    5.4209 H         1 <1>         0.0755 
      29 H13        3.0595    2.2261    5.4402 H         1 <1>         0.0813 
      30 H14        1.9200    2.8792    4.2699 H         1 <1>         0.0754 
      31 H15        1.0171    1.7263    2.1855 H         1 <1>         0.4413 
      32 H16       -2.5934    1.0574    1.7722 H         1 <1>         0.1298 
      33 H17       -2.7877   -0.5739    1.0948 H         1 <1>         0.1291 
      34 H18       -2.3522   -0.3681    2.8054 H         1 <1>         0.1269 
@<TRIPOS>BOND
       1        1        2 1        
       2        1       17 1        
       3        1       18 1        
       4        1       19 1        
       5        2        3 2        
       6        2        4 2        
       7        2        5 1        
       8        5        6 1        
       9        5       20 1        
      10        6       11 1        
      11        6        7 1        
      12        6       21 1        
      13        7        8 1        
      14        7       22 1        
      15        7       23 1        
      16        8        9 1        
      17        8       24 1        
      18        8       25 1        
      19        9       10 1        
      20        9       12 1        
      21        9       26 1        
      22       10       11 1        
      23       10       27 1        
      24       10       28 1        
      25       11       29 1        
      26       11       30 1        
      27       12       13 1        
      28       12       31 1        
      29       13       14 2        
      30       13       15 2        
      31       13       16 1        
      32       16       32 1        
      33       16       33 1        
      34       16       34 1        

