#        1GCZ_R01_S0001_C0000_L00003_S0001_C0034_G0010_E0001.mol2
#        Tue Jun  6 14:04:35 2017
#        Descriptor:      2    34    22     7     6    15
#        Energy - RMSD - RMSD MassCentre:     -63.4388    999.9999    999.9999
#        Receptor:       1  Surface Point:     1  Conformer:     0
#        Ligand:         3  Surface Point:     1  Conformer:    34
#        BUDE Formal Charge: 0
#        ATOM Count: 58
#        Heavy ATOM Count: 30
@<TRIPOS>MOLECULE
ZINC61580633_1GCZ_R01_S0001_C0000_L00003_S0001_C0034_G0010_E0001
 58 59 0 0 0
SMALL
USER_CHARGES
@<TRIPOS>ATOM
       1 C1        -4.7951   -5.1011   12.1747 C.3       1 <0>        -0.1532 
       2 C2        -4.2866   -3.7774   11.6110 C.3       1 <0>        -0.1224 
       3 C3        -3.0029   -3.3758   12.3359 C.3       1 <0>        -0.1198 
       4 C4        -1.9377   -4.4491   12.1160 C.3       1 <0>         0.0610 
       5 O1        -1.6245   -4.5301   10.7231 O.3       1 <0>        -0.3878 
       6 C5        -0.6294   -5.5218   10.4556 C.3       1 <0>         0.0487 
       7 C6        -0.3396   -5.5596    8.9560 C.3       1 <0>         0.1244 
       8 N1         0.4108   -4.3553    8.5723 N.am      1 <0>        -0.7216 
       9 C7         0.7744   -4.1742    7.3057 C.2       1 <0>         0.5161 
      10 O2         0.4830   -5.0135    6.4553 O.2       1 <0>        -0.5151 
      11 C8         1.5452   -2.9370    6.9116 C.3       1 <0>         0.0490 
      12 O3         0.6908   -1.7941    7.0047 O.3       1 <0>        -0.3194 
      13 C9         0.2004   -1.4675    8.2194 C.2       1 <0>         0.5417 
      14 O4         0.4892   -2.1397    9.1956 O.2       1 <0>        -0.5337 
      15 C10       -0.6882   -0.2933    8.3666 C.2       1 <0>        -0.2559 
      16 C11       -1.2904    0.1446    9.6457 C.2       1 <0>        -0.0791 
      17 C12       -2.0629    1.2238    9.5012 C.2       1 <0>        -0.2585 
      18 S1        -2.1238    1.8007    7.8291 S.3       1 <0>         0.3028 
      19 C13       -1.0449    0.4867    7.3371 C.2       1 <0>         0.0893 
      20 N2        -0.6093    0.2528    6.0594 N.am      1 <0>        -0.6099 
      21 C14       -0.9900    1.0545    5.0689 C.2       1 <0>         0.5551 
      22 O5        -1.7336    2.0067    5.3000 O.2       1 <0>        -0.4939 
      23 C15       -0.5185    0.8005    3.6892 C.ar      1 <0>        -0.1466 
      24 C16       -0.9463    1.6675    2.6765 C.ar      1 <0>        -0.0772 
      25 C17       -0.5940    1.4362    1.3416 C.ar      1 <0>        -0.1241 
      26 C18        0.1849    0.3268    0.9929 C.ar      1 <0>        -0.0446 
      27 C19        0.6582   -0.5118    2.0091 C.ar      1 <0>        -0.1261 
      28 C20        0.3279   -0.2605    3.3462 C.ar      1 <0>        -0.0460 
      29 C21        0.5021    0.0603   -0.4593 C.3       1 <0>        -0.0928 
      30 C22       -0.5785   -0.8348   -1.0591 C.3       1 <0>        -0.1485 
      31 H1        -5.0109   -4.9842   13.2346 H         1 <0>         0.0567 
      32 H2        -4.0345   -5.8675   12.0413 H         1 <0>         0.0554 
      33 H3        -5.7017   -5.3939   11.6494 H         1 <0>         0.0557 
      34 H4        -4.0823   -3.8897   10.5483 H         1 <0>         0.0632 
      35 H5        -5.0408   -3.0069   11.7565 H         1 <0>         0.0635 
      36 H6        -2.6461   -2.4259   11.9436 H         1 <0>         0.0711 
      37 H7        -3.2028   -3.2770   13.4008 H         1 <0>         0.0704 
      38 H8        -1.0404   -4.1902   12.6743 H         1 <0>         0.0498 
      39 H9        -2.3144   -5.4104   12.4589 H         1 <0>         0.0505 
      40 H10       -0.9907   -6.4956   10.7792 H         1 <0>         0.0584 
      41 H11        0.2831   -5.2755   10.9946 H         1 <0>         0.0702 
      42 H12       -1.2773   -5.5925    8.4054 H         1 <0>         0.0872 
      43 H13        0.2502   -6.4434    8.7221 H         1 <0>         0.0805 
      44 H14        0.6507   -3.6653    9.2697 H         1 <0>         0.4058 
      45 H15        2.3942   -2.8096    7.5799 H         1 <0>         0.1008 
      46 H16        1.9005   -3.0409    5.8886 H         1 <0>         0.0999 
      47 H17       -1.1022   -0.3605   10.5816 H         1 <0>         0.1557 
      48 H18       -2.5773    1.6902   10.3282 H         1 <0>         0.1929 
      49 H19        0.0013   -0.5289    5.8696 H         1 <0>         0.4317 
      50 H20       -1.5584    2.5219    2.9248 H         1 <0>         0.1287 
      51 H21       -0.9247    2.1154    0.5697 H         1 <0>         0.1326 
      52 H22        1.2844   -1.3520    1.7475 H         1 <0>         0.1342 
      53 H23        0.7699   -0.9057    4.0909 H         1 <0>         0.1410 
      54 H24        1.4675   -0.4358   -0.5338 H         1 <0>         0.0777 
      55 H25        0.5353    1.0030   -1.0015 H         1 <0>         0.0771 
      56 H26       -1.5413   -0.3323   -0.9953 H         1 <0>         0.0623 
      57 H27       -0.6203   -1.7715   -0.5071 H         1 <0>         0.0572 
      58 H28       -0.3428   -1.0376   -2.1017 H         1 <0>         0.0578 
@<TRIPOS>BOND
       1        1        2 1        
       2        1       31 1        
       3        1       32 1        
       4        1       33 1        
       5        2        3 1        
       6        2       34 1        
       7        2       35 1        
       8        3        4 1        
       9        3       36 1        
      10        3       37 1        
      11        4        5 1        
      12        4       38 1        
      13        4       39 1        
      14        5        6 1        
      15        6        7 1        
      16        6       40 1        
      17        6       41 1        
      18        7        8 1        
      19        7       42 1        
      20        7       43 1        
      21        8        9 am       
      22        8       44 1        
      23        9       10 2        
      24        9       11 1        
      25       11       12 1        
      26       11       45 1        
      27       11       46 1        
      28       12       13 1        
      29       13       14 2        
      30       13       15 1        
      31       15       19 2        
      32       15       16 1        
      33       16       17 2        
      34       16       47 1        
      35       17       18 1        
      36       17       48 1        
      37       18       19 1        
      38       19       20 1        
      39       20       21 am       
      40       20       49 1        
      41       21       22 2        
      42       21       23 1        
      43       23       28 ar       
      44       23       24 ar       
      45       24       25 ar       
      46       24       50 1        
      47       25       26 ar       
      48       25       51 1        
      49       26       27 ar       
      50       26       29 1        
      51       27       28 ar       
      52       27       52 1        
      53       28       53 1        
      54       29       30 1        
      55       29       54 1        
      56       29       55 1        
      57       30       56 1        
      58       30       57 1        
      59       30       58 1        

