#        1GCZ_R01_S0001_C0000_L00016_S0001_C0014_G0010_E0001.mol2
#        Tue Jun  6 10:00:55 2017
#        Descriptor:     33    11    28     7    10    11
#        Energy - RMSD - RMSD MassCentre:     -43.4817    999.9999    999.9999
#        Receptor:       1  Surface Point:     1  Conformer:     0
#        Ligand:        16  Surface Point:     1  Conformer:    14
#        BUDE Formal Charge: 0
#        ATOM Count: 34
#        Heavy ATOM Count: 16
@<TRIPOS>MOLECULE
ZINC01456998_1GCZ_R01_S0001_C0000_L00016_S0001_C0014_G0010_E0001
 34 34 1 0 0
SMALL
USER_CHARGES
INVALID_CHARGES
@<TRIPOS>ATOM
       1 C1        -0.9604    0.3694   -0.0402 C.3       1 <1>        -0.6866 
       2 S1        -0.5043   -0.3407    1.5610 S.o2      1 <1>         2.6131 
       3 O1         0.5934   -1.2406    1.3871 O.2       1 <1>        -0.9590 
       4 O2        -1.6205   -1.0510    2.1038 O.2       1 <1>        -0.9559 
       5 N1        -0.0383    0.9412    2.6574 N.pl3     1 <1>        -1.1225 
       6 C2         0.3627    0.6201    4.0346 C.3       1 <1>         0.1462 
       7 C3        -0.4265    1.4366    4.9982 C.3       1 <1>        -0.1478 
       8 C4         0.2915    2.7697    5.2792 C.3       1 <1>        -0.1480 
       9 C5         1.6003    2.5227    6.0521 C.3       1 <1>         0.1459 
      10 C6         2.2152    1.1633    5.6700 C.3       1 <1>        -0.1180 
      11 C7         1.8807    0.8122    4.2084 C.3       1 <1>        -0.1181 
      12 N2         1.3331    2.5696    7.4967 N.pl3     1 <1>        -1.1224 
      13 S2         2.3624    3.5195    8.5459 S.o2      1 <1>         2.6132 
      14 O3         2.2254    4.9051    8.2197 O.2       1 <1>        -0.9589 
      15 O4         1.9780    3.3091    9.9071 O.2       1 <1>        -0.9559 
      16 C8         4.0851    3.0126    8.3192 C.3       1 <1>        -0.6870 
      17 H1        -1.2619   -0.4275   -0.7170 H         1 <1>         0.1268 
      18 H2        -1.7867    1.0641    0.0942 H         1 <1>         0.1299 
      19 H3        -0.1061    0.8973   -0.4586 H         1 <1>         0.1290 
      20 H4        -0.0450    1.9011    2.3434 H         1 <1>         0.4413 
      21 H5         0.1176   -0.4202    4.2374 H         1 <1>         0.0955 
      22 H6        -1.4142    1.6313    4.5859 H         1 <1>         0.0795 
      23 H7        -0.5554    0.8814    5.9251 H         1 <1>         0.0718 
      24 H8        -0.3569    3.4184    5.8643 H         1 <1>         0.0718 
      25 H9         0.5140    3.2765    4.3424 H         1 <1>         0.0797 
      26 H10        2.3111    3.3083    5.8045 H         1 <1>         0.0955 
      27 H11        1.8239    0.3907    6.3285 H         1 <1>         0.0813 
      28 H12        3.2939    1.2042    5.8063 H         1 <1>         0.0755 
      29 H13        2.2221    1.6132    3.5562 H         1 <1>         0.0813 
      30 H14        2.3966   -0.0999    3.9157 H         1 <1>         0.0754 
      31 H15        0.5553    2.0539    7.8830 H         1 <1>         0.4413 
      32 H16        4.3802    3.1848    7.2863 H         1 <1>         0.1298 
      33 H17        4.7236    3.5937    8.9812 H         1 <1>         0.1291 
      34 H18        4.1852    1.9549    8.5541 H         1 <1>         0.1269 
@<TRIPOS>BOND
       1        1        2 1        
       2        1       17 1        
       3        1       18 1        
       4        1       19 1        
       5        2        3 2        
       6        2        4 2        
       7        2        5 1        
       8        5        6 1        
       9        5       20 1        
      10        6       11 1        
      11        6        7 1        
      12        6       21 1        
      13        7        8 1        
      14        7       22 1        
      15        7       23 1        
      16        8        9 1        
      17        8       24 1        
      18        8       25 1        
      19        9       10 1        
      20        9       12 1        
      21        9       26 1        
      22       10       11 1        
      23       10       27 1        
      24       10       28 1        
      25       11       29 1        
      26       11       30 1        
      27       12       13 1        
      28       12       31 1        
      29       13       14 2        
      30       13       15 2        
      31       13       16 1        
      32       16       32 1        
      33       16       33 1        
      34       16       34 1        

