#        1GCZ_R01_S0001_C0000_L00016_S0001_C0014_G0010_E0001.mol2
#        Tue Jun  6 14:18:12 2017
#        Descriptor:     34    11    29     6    10    11
#        Energy - RMSD - RMSD MassCentre:     -39.7561    999.9999    999.9999
#        Receptor:       1  Surface Point:     1  Conformer:     0
#        Ligand:        16  Surface Point:     1  Conformer:    14
#        BUDE Formal Charge: 0
#        ATOM Count: 34
#        Heavy ATOM Count: 16
@<TRIPOS>MOLECULE
ZINC01456998_1GCZ_R01_S0001_C0000_L00016_S0001_C0014_G0010_E0001
 34 34 1 0 0
SMALL
USER_CHARGES
INVALID_CHARGES
@<TRIPOS>ATOM
       1 C1        -1.5854    0.3995   -0.0281 C.3       1 <1>        -0.6866 
       2 S1        -0.8333   -0.0792    1.5470 S.o2      1 <1>         2.6131 
       3 O1         0.4899   -0.5685    1.3132 O.2       1 <1>        -0.9590 
       4 O2        -1.6189   -1.1056    2.1590 O.2       1 <1>        -0.9559 
       5 N1        -0.7611    1.3115    2.6068 N.pl3     1 <1>        -1.1225 
       6 C2        -0.2023    1.1760    3.9595 C.3       1 <1>         0.1462 
       7 C3        -1.1646    1.7084    4.9638 C.3       1 <1>        -0.1478 
       8 C4        -0.9163    3.2107    5.1943 C.3       1 <1>        -0.1480 
       9 C5         0.4401    3.4308    5.8895 C.3       1 <1>         0.1459 
      10 C6         1.4501    2.3429    5.4791 C.3       1 <1>        -0.1180 
      11 C7         1.1726    1.8646    4.0419 C.3       1 <1>        -0.1181 
      12 N2         0.2510    3.4225    7.3471 N.pl3     1 <1>        -1.1224 
      13 S2         0.9614    4.6855    8.3281 S.o2      1 <1>         2.6132 
      14 O3         0.3543    5.9389    8.0030 O.2       1 <1>        -0.9589 
      15 O4         0.7430    4.3936    9.7109 O.2       1 <1>        -0.9559 
      16 C8         2.7397    4.7728    8.0025 C.3       1 <1>        -0.6870 
      17 H1        -1.6412   -0.4688   -0.6815 H         1 <1>         0.1268 
      18 H2        -2.5871    0.7842    0.1512 H         1 <1>         0.1299 
      19 H3        -0.9792    1.1701   -0.4994 H         1 <1>         0.1290 
      20 H4        -1.1035    2.2069    2.2885 H         1 <1>         0.4413 
      21 H5        -0.0765    0.1186    4.1822 H         1 <1>         0.0955 
      22 H6        -2.1816    1.5545    4.6097 H         1 <1>         0.0795 
      23 H7        -1.0513    1.1652    5.8996 H         1 <1>         0.0718 
      24 H8        -1.7107    3.6222    5.8132 H         1 <1>         0.0718 
      25 H9        -0.9259    3.7391    4.2432 H         1 <1>         0.0797 
      26 H10        0.8349    4.4011    5.5959 H         1 <1>         0.0955 
      27 H11        1.3740    1.5010    6.1639 H         1 <1>         0.0813 
      28 H12        2.4596    2.7423    5.5509 H         1 <1>         0.0755 
      29 H13        1.1926    2.7169    3.3661 H         1 <1>         0.0813 
      30 H14        1.9457    1.1679    3.7240 H         1 <1>         0.0754 
      31 H15       -0.2890    2.6879    7.7817 H         1 <1>         0.4413 
      32 H16        2.9044    5.0072    6.9529 H         1 <1>         0.1298 
      33 H17        3.1836    5.5490    8.6222 H         1 <1>         0.1291 
      34 H18        3.1981    3.8142    8.2368 H         1 <1>         0.1269 
@<TRIPOS>BOND
       1        1        2 1        
       2        1       17 1        
       3        1       18 1        
       4        1       19 1        
       5        2        3 2        
       6        2        4 2        
       7        2        5 1        
       8        5        6 1        
       9        5       20 1        
      10        6       11 1        
      11        6        7 1        
      12        6       21 1        
      13        7        8 1        
      14        7       22 1        
      15        7       23 1        
      16        8        9 1        
      17        8       24 1        
      18        8       25 1        
      19        9       10 1        
      20        9       12 1        
      21        9       26 1        
      22       10       11 1        
      23       10       27 1        
      24       10       28 1        
      25       11       29 1        
      26       11       30 1        
      27       12       13 1        
      28       12       31 1        
      29       13       14 2        
      30       13       15 2        
      31       13       16 1        
      32       16       32 1        
      33       16       33 1        
      34       16       34 1        

