#        1GCZ_R01_S0001_C0000_L00017_S0001_C0000_G0010_E0001.mol2
#        Tue Jun  6 10:00:56 2017
#        Descriptor:      6    17    17     6     9    13
#        Energy - RMSD - RMSD MassCentre:     -69.8733    999.9999    999.9999
#        Receptor:       1  Surface Point:     1  Conformer:     0
#        Ligand:        17  Surface Point:     1  Conformer:     0
#        BUDE Formal Charge: 0
#        ATOM Count: 52
#        Heavy ATOM Count: 29
@<TRIPOS>MOLECULE
ZINC61282001_1GCZ_R01_S0001_C0000_L00017_S0001_C0000_G0010_E0001
 52 53 0 0 0
SMALL
USER_CHARGES
@<TRIPOS>ATOM
       1 C1        -1.0790    0.3641   -4.5156 C.3       1 <0>        -0.1391 
       2 C2        -1.1558    1.1412   -3.1999 C.3       1 <0>        -0.1418 
       3 C3        -0.8115    0.2246   -2.0542 C.2       1 <0>         0.5169 
       4 O1        -0.5321   -0.9358   -2.2690 O.2       1 <0>        -0.5335 
       5 N1        -0.8140    0.6946   -0.7910 N.am      1 <0>        -0.7285 
       6 C4        -0.4792   -0.1964    0.3227 C.3       1 <0>         0.1288 
       7 C5        -0.5549    0.5689    1.6185 C.2       1 <0>         0.4630 
       8 O2        -0.8574    1.7388    1.6125 O.2       1 <0>        -0.4988 
       9 O3        -0.2862   -0.0488    2.7795 O.3       1 <0>        -0.3175 
      10 C6        -0.3773    0.7377    3.9692 C.3       1 <0>         0.0731 
      11 C7         0.9811    1.3775    4.2629 C.3       1 <0>        -0.1692 
      12 C8        -0.7780   -0.1433    5.1244 C.2       1 <0>         0.5202 
      13 O4        -0.8786   -1.3415    4.9667 O.2       1 <0>        -0.4963 
      14 N2        -1.0245    0.4005    6.3327 N.am      1 <0>        -0.6538 
      15 C9        -1.4850   -0.3996    7.3756 C.ar      1 <0>         0.2101 
      16 C10       -1.0426   -1.7101    7.4974 C.ar      1 <0>        -0.1321 
      17 C11       -1.5006   -2.5014    8.5313 C.ar      1 <0>        -0.0675 
      18 C12       -2.4027   -1.9968    9.4542 C.ar      1 <0>        -0.1401 
      19 C13       -2.8525   -0.6984    9.3492 C.ar      1 <0>        -0.0656 
      20 C14       -2.3938    0.1162    8.3114 C.ar      1 <0>        -0.1718 
      21 C15       -2.8665    1.5089    8.1969 C.2       1 <0>         0.5702 
      22 O5        -2.5457    2.1828    7.2370 O.2       1 <0>        -0.5422 
      23 N3        -3.6539    2.0343    9.1563 N.am      1 <0>        -0.7214 
      24 C16       -4.1233    3.4173    9.0425 C.3       1 <0>         0.2043 
      25 C17       -4.9800    3.7567   10.2351 C.2       1 <0>        -0.0464 
      26 C18       -4.5432    4.2833   11.3932 C.2       1 <0>        -0.1782 
      27 C19       -5.6753    4.4374   12.2259 C.2       1 <0>        -0.2183 
      28 C20       -6.7362    3.9957   11.5269 C.2       1 <0>        -0.0240 
      29 O6        -6.3100    3.5900   10.3196 O.3       1 <0>        -0.1712 
      30 H1        -0.0689   -0.0226   -4.6506 H         1 <0>         0.0628 
      31 H2        -1.7853   -0.4657   -4.4892 H         1 <0>         0.0628 
      32 H3        -1.3281    1.0271   -5.3441 H         1 <0>         0.0640 
      33 H4        -0.4495    1.9710   -3.2262 H         1 <0>         0.0966 
      34 H5        -2.1659    1.5280   -3.0647 H         1 <0>         0.0966 
      35 H6        -1.0374    1.6228   -0.6193 H         1 <0>         0.4131 
      36 H7        -1.1855   -1.0262    0.3490 H         1 <0>         0.1171 
      37 H8         0.5309   -0.5832    0.1875 H         1 <0>         0.1171 
      38 H9        -1.1248    1.5190    3.8318 H         1 <0>         0.1185 
      39 H10        1.7286    0.5960    4.4003 H         1 <0>         0.0777 
      40 H11        1.2709    2.0146    3.4273 H         1 <0>         0.0803 
      41 H12        0.9117    1.9774    5.1703 H         1 <0>         0.0842 
      42 H13       -0.8812    1.3491    6.4760 H         1 <0>         0.4245 
      43 H14       -0.3396   -2.1107    6.7821 H         1 <0>         0.1486 
      44 H15       -1.1541   -3.5204    8.6215 H         1 <0>         0.1348 
      45 H16       -2.7553   -2.6242   10.2593 H         1 <0>         0.1332 
      46 H17       -3.5559   -0.3100   10.0709 H         1 <0>         0.1296 
      47 H18       -3.9099    1.4966    9.9220 H         1 <0>         0.4054 
      48 H19       -3.2665    4.0901    9.0075 H         1 <0>         0.1035 
      49 H20       -4.7099    3.5282    8.1305 H         1 <0>         0.0890 
      50 H21       -3.5231    4.5388   11.6398 H         1 <0>         0.1520 
      51 H22       -5.6861    4.8333   13.2307 H         1 <0>         0.1526 
      52 H23       -7.7581    3.9747   11.8758 H         1 <0>         0.2068 
@<TRIPOS>BOND
       1        1        2 1        
       2        1       30 1        
       3        1       31 1        
       4        1       32 1        
       5        2        3 1        
       6        2       33 1        
       7        2       34 1        
       8        3        4 2        
       9        3        5 am       
      10        5        6 1        
      11        5       35 1        
      12        6        7 1        
      13        6       36 1        
      14        6       37 1        
      15        7        8 2        
      16        7        9 1        
      17        9       10 1        
      18       10       11 1        
      19       10       12 1        
      20       10       38 1        
      21       11       39 1        
      22       11       40 1        
      23       11       41 1        
      24       12       13 2        
      25       12       14 am       
      26       14       15 1        
      27       14       42 1        
      28       15       20 ar       
      29       15       16 ar       
      30       16       17 ar       
      31       16       43 1        
      32       17       18 ar       
      33       17       44 1        
      34       18       19 ar       
      35       18       45 1        
      36       19       20 ar       
      37       19       46 1        
      38       20       21 1        
      39       21       22 2        
      40       21       23 am       
      41       23       24 1        
      42       23       47 1        
      43       24       25 1        
      44       24       48 1        
      45       24       49 1        
      46       25       29 1        
      47       25       26 2        
      48       26       27 1        
      49       26       50 1        
      50       27       28 2        
      51       27       51 1        
      52       28       29 1        
      53       28       52 1        

