#        1GCZ_R01_S0001_C0000_L00017_S0001_C0000_G0010_E0001.mol2
#        Tue Jun  6 14:18:14 2017
#        Descriptor:      6    17    16     7     9    13
#        Energy - RMSD - RMSD MassCentre:     -67.9401    999.9999    999.9999
#        Receptor:       1  Surface Point:     1  Conformer:     0
#        Ligand:        17  Surface Point:     1  Conformer:     0
#        BUDE Formal Charge: 0
#        ATOM Count: 52
#        Heavy ATOM Count: 29
@<TRIPOS>MOLECULE
ZINC61282001_1GCZ_R01_S0001_C0000_L00017_S0001_C0000_G0010_E0001
 52 53 0 0 0
SMALL
USER_CHARGES
@<TRIPOS>ATOM
       1 C1        -0.2034    0.2138   -4.5156 C.3       1 <0>        -0.1391 
       2 C2        -0.1441    0.9925   -3.1999 C.3       1 <0>        -0.1418 
       3 C3         0.0358    0.0300   -2.0542 C.2       1 <0>         0.5169 
       4 O1         0.1094   -1.1613   -2.2690 O.2       1 <0>        -0.5335 
       5 N1         0.1150    0.4933   -0.7910 N.am      1 <0>        -0.7285 
       6 C4         0.2899   -0.4423    0.3227 C.3       1 <0>         0.1288 
       7 C5         0.3483    0.3245    1.6185 C.2       1 <0>         0.4630 
       8 O2         0.2536    1.5292    1.6125 O.2       1 <0>        -0.4988 
       9 O3         0.5057   -0.3304    2.7795 O.3       1 <0>        -0.3175 
      10 C6         0.5525    0.4599    3.9692 C.3       1 <0>         0.0731 
      11 C7         2.0014    0.8541    4.2629 C.3       1 <0>        -0.1692 
      12 C8         0.0049   -0.3381    5.1244 C.2       1 <0>         0.5202 
      13 O4        -0.3023   -1.5007    4.9667 O.2       1 <0>        -0.4963 
      14 N2        -0.1435    0.2402    6.3327 N.am      1 <0>        -0.6538 
      15 C9        -0.7359   -0.4678    7.3756 C.ar      1 <0>         0.2101 
      16 C10       -0.5277   -1.8352    7.4974 C.ar      1 <0>        -0.1321 
      17 C11       -1.1162   -2.5349    8.5313 C.ar      1 <0>        -0.0675 
      18 C12       -1.9169   -1.8813    9.4542 C.ar      1 <0>        -0.1401 
      19 C13       -2.1345   -0.5246    9.3492 C.ar      1 <0>        -0.0656 
      20 C14       -1.5413    0.1980    8.3114 C.ar      1 <0>        -0.1718 
      21 C15       -1.7650    1.6517    8.1969 C.2       1 <0>         0.5702 
      22 O5        -1.3321    2.2596    7.2370 O.2       1 <0>        -0.5422 
      23 N3        -2.4492    2.3058    9.1563 N.am      1 <0>        -0.7214 
      24 C16       -2.6713    3.7493    9.0425 C.3       1 <0>         0.2043 
      25 C17       -3.4560    4.2323   10.2351 C.2       1 <0>        -0.0464 
      26 C18       -2.9344    4.6750   11.3932 C.2       1 <0>        -0.1782 
      27 C19       -4.0225    5.0234   12.2259 C.2       1 <0>        -0.2183 
      28 C20       -5.1440    4.7726   11.5269 C.2       1 <0>        -0.0240 
      29 O6        -4.7948    4.2991   10.3196 O.3       1 <0>        -0.1712 
      30 H1         0.7242   -0.3424   -4.6506 H         1 <0>         0.0628 
      31 H2        -1.0431   -0.4807   -4.4892 H         1 <0>         0.0628 
      32 H3        -0.3336    0.9100   -5.3441 H         1 <0>         0.0640 
      33 H4         0.6955    1.6870   -3.2262 H         1 <0>         0.0966 
      34 H5        -1.0717    1.5488   -3.0647 H         1 <0>         0.0966 
      35 H6         0.0561    1.4462   -0.6193 H         1 <0>         0.4131 
      36 H7        -0.5497   -1.1368    0.3490 H         1 <0>         0.1171 
      37 H8         1.2175   -0.9986    0.1875 H         1 <0>         0.1171 
      38 H9        -0.0480    1.3592    3.8318 H         1 <0>         0.1185 
      39 H10        2.6018   -0.0453    4.4003 H         1 <0>         0.0777 
      40 H11        2.3974    1.4312    3.4273 H         1 <0>         0.0803 
      41 H12        2.0371    1.4569    5.1703 H         1 <0>         0.0842 
      42 H13        0.1625    1.1495    6.4760 H         1 <0>         0.4245 
      43 H14        0.0950   -2.3518    6.7821 H         1 <0>         0.1486 
      44 H15       -0.9519   -3.5986    8.6215 H         1 <0>         0.1348 
      45 H16       -2.3732   -2.4380   10.2593 H         1 <0>         0.1332 
      46 H17       -2.7597   -0.0200   10.0709 H         1 <0>         0.1296 
      47 H18       -2.7946    1.8207    9.9220 H         1 <0>         0.4054 
      48 H19       -1.7107    4.2631    9.0075 H         1 <0>         0.1035 
      49 H20       -3.2297    3.9604    8.1305 H         1 <0>         0.0890 
      50 H21       -1.8855    4.7495   11.6398 H         1 <0>         0.1520 
      51 H22       -3.9644    5.4152   13.2307 H         1 <0>         0.1526 
      52 H23       -6.1541    4.9294   11.8758 H         1 <0>         0.2068 
@<TRIPOS>BOND
       1        1        2 1        
       2        1       30 1        
       3        1       31 1        
       4        1       32 1        
       5        2        3 1        
       6        2       33 1        
       7        2       34 1        
       8        3        4 2        
       9        3        5 am       
      10        5        6 1        
      11        5       35 1        
      12        6        7 1        
      13        6       36 1        
      14        6       37 1        
      15        7        8 2        
      16        7        9 1        
      17        9       10 1        
      18       10       11 1        
      19       10       12 1        
      20       10       38 1        
      21       11       39 1        
      22       11       40 1        
      23       11       41 1        
      24       12       13 2        
      25       12       14 am       
      26       14       15 1        
      27       14       42 1        
      28       15       20 ar       
      29       15       16 ar       
      30       16       17 ar       
      31       16       43 1        
      32       17       18 ar       
      33       17       44 1        
      34       18       19 ar       
      35       18       45 1        
      36       19       20 ar       
      37       19       46 1        
      38       20       21 1        
      39       21       22 2        
      40       21       23 am       
      41       23       24 1        
      42       23       47 1        
      43       24       25 1        
      44       24       48 1        
      45       24       49 1        
      46       25       29 1        
      47       25       26 2        
      48       26       27 1        
      49       26       50 1        
      50       27       28 2        
      51       27       51 1        
      52       28       29 1        
      53       28       52 1        

