#        1GCZ_R01_S0001_C0000_L00017_S0001_C0001_G0010_E0001.mol2
#        Tue Jun  6 10:00:57 2017
#        Descriptor:     36     7    34     8     7    13
#        Energy - RMSD - RMSD MassCentre:     -77.8852    999.9999    999.9999
#        Receptor:       1  Surface Point:     1  Conformer:     0
#        Ligand:        17  Surface Point:     1  Conformer:     1
#        BUDE Formal Charge: 0
#        ATOM Count: 52
#        Heavy ATOM Count: 29
@<TRIPOS>MOLECULE
ZINC61282001_1GCZ_R01_S0001_C0000_L00017_S0001_C0001_G0010_E0001
 52 53 0 0 0
SMALL
USER_CHARGES
@<TRIPOS>ATOM
       1 C1        -0.1204   -1.1653   -1.0344 C.3       1 <0>        -0.1391 
       2 C2        -0.7739    0.1547   -0.6355 C.3       1 <0>        -0.1418 
       3 C3        -0.9841    0.1797    0.8596 C.2       1 <0>         0.5169 
       4 O1        -0.6387   -0.7805    1.5463 O.2       1 <0>        -0.5335 
       5 N1        -1.5432    1.2408    1.4345 N.am      1 <0>        -0.7285 
       6 C4        -1.7478    1.2652    2.8898 C.3       1 <0>         0.1288 
       7 C5        -0.4318    1.5397    3.5777 C.2       1 <0>         0.4630 
       8 O2        -0.2793    2.5509    4.1957 O.2       1 <0>        -0.4988 
       9 O3         0.5730    0.6420    3.4943 O.3       1 <0>        -0.3175 
      10 C6         1.8006    0.9454    4.1620 C.3       1 <0>         0.0731 
      11 C7         2.8187   -0.1563    3.8823 C.3       1 <0>        -0.1692 
      12 C8         1.5545    1.0361    5.6491 C.2       1 <0>         0.5202 
      13 O4         1.8185    2.0736    6.2548 O.2       1 <0>        -0.4963 
      14 N2         1.0521   -0.0064    6.3045 N.am      1 <0>        -0.6538 
      15 C9         0.8210    0.0770    7.6979 C.ar      1 <0>         0.2101 
      16 C10        1.4911    1.0165    8.4904 C.ar      1 <0>        -0.1321 
      17 C11        1.2683    1.0297    9.8726 C.ar      1 <0>        -0.0675 
      18 C12        0.3834    0.1126   10.4538 C.ar      1 <0>        -0.1401 
      19 C13       -0.3114   -0.8014    9.6528 C.ar      1 <0>        -0.0656 
      20 C14       -0.0783   -0.8288    8.2728 C.ar      1 <0>        -0.1718 
      21 C15       -0.7286   -1.7881    7.3522 C.2       1 <0>         0.5702 
      22 O5        -0.4673   -1.7604    6.1506 O.2       1 <0>        -0.5422 
      23 N3        -1.5952   -2.6795    7.8249 N.am      1 <0>        -0.7214 
      24 C16       -2.2412   -3.6322    6.9106 C.3       1 <0>         0.2043 
      25 C17       -1.2452   -4.6915    6.5031 C.2       1 <0>        -0.0464 
      26 C18        0.0301   -4.7768    6.9054 C.2       1 <0>        -0.1782 
      27 C19        0.5250   -5.9858    6.2099 C.2       1 <0>        -0.2183 
      28 C20       -0.5328   -6.4254    5.5226 C.2       1 <0>        -0.0240 
      29 O6        -1.7028   -5.6775    5.6320 O.3       1 <0>        -0.1712 
      30 H1        -0.7726   -1.9907   -0.7564 H         1 <0>         0.0628 
      31 H2         0.0432   -1.1778   -2.1100 H         1 <0>         0.0628 
      32 H3         0.8331   -1.2669   -0.5205 H         1 <0>         0.0640 
      33 H4        -1.7342    0.2512   -1.1377 H         1 <0>         0.0966 
      34 H5        -0.1282    0.9815   -0.9241 H         1 <0>         0.0966 
      35 H6        -1.8272    2.0300    0.8716 H         1 <0>         0.4131 
      36 H7        -2.4592    2.0482    3.1437 H         1 <0>         0.1171 
      37 H8        -2.1343    0.3028    3.2186 H         1 <0>         0.1171 
      38 H9         2.1856    1.8965    3.8001 H         1 <0>         0.1185 
      39 H10        2.4273   -1.1087    4.2333 H         1 <0>         0.0777 
      40 H11        3.0060   -0.2127    2.8120 H         1 <0>         0.0803 
      41 H12        3.7476    0.0686    4.4022 H         1 <0>         0.0842 
      42 H13        0.8353   -0.8583    5.8072 H         1 <0>         0.4245 
      43 H14        2.1767    1.7191    8.0403 H         1 <0>         0.1486 
      44 H15        1.7894    1.7452   10.4914 H         1 <0>         0.1348 
      45 H16        0.2283    0.1122   11.5226 H         1 <0>         0.1332 
      46 H17       -1.0211   -1.4806   10.1017 H         1 <0>         0.1296 
      47 H18       -1.8091   -2.7013    8.8118 H         1 <0>         0.4054 
      48 H19       -2.5924   -3.1044    6.0265 H         1 <0>         0.1035 
      49 H20       -3.0848   -4.1008    7.4129 H         1 <0>         0.0890 
      50 H21        0.5887   -4.1369    7.5725 H         1 <0>         0.1520 
      51 H22        1.5128   -6.4202    6.2522 H         1 <0>         0.1526 
      52 H23       -0.5277   -7.3033    4.8937 H         1 <0>         0.2068 
@<TRIPOS>BOND
       1        1        2 1        
       2        1       30 1        
       3        1       31 1        
       4        1       32 1        
       5        2        3 1        
       6        2       33 1        
       7        2       34 1        
       8        3        4 2        
       9        3        5 am       
      10        5        6 1        
      11        5       35 1        
      12        6        7 1        
      13        6       36 1        
      14        6       37 1        
      15        7        8 2        
      16        7        9 1        
      17        9       10 1        
      18       10       11 1        
      19       10       12 1        
      20       10       38 1        
      21       11       39 1        
      22       11       40 1        
      23       11       41 1        
      24       12       13 2        
      25       12       14 am       
      26       14       15 1        
      27       14       42 1        
      28       15       20 ar       
      29       15       16 ar       
      30       16       17 ar       
      31       16       43 1        
      32       17       18 ar       
      33       17       44 1        
      34       18       19 ar       
      35       18       45 1        
      36       19       20 ar       
      37       19       46 1        
      38       20       21 1        
      39       21       22 2        
      40       21       23 am       
      41       23       24 1        
      42       23       47 1        
      43       24       25 1        
      44       24       48 1        
      45       24       49 1        
      46       25       29 1        
      47       25       26 2        
      48       26       27 1        
      49       26       50 1        
      50       27       28 2        
      51       27       51 1        
      52       28       29 1        
      53       28       52 1        

