#        1GCZ_R01_S0001_C0000_L00017_S0001_C0001_G0010_E0001.mol2
#        Tue Jun  6 14:18:16 2017
#        Descriptor:     36     8    35     8     7    13
#        Energy - RMSD - RMSD MassCentre:     -77.8914    999.9999    999.9999
#        Receptor:       1  Surface Point:     1  Conformer:     0
#        Ligand:        17  Surface Point:     1  Conformer:     1
#        BUDE Formal Charge: 0
#        ATOM Count: 52
#        Heavy ATOM Count: 29
@<TRIPOS>MOLECULE
ZINC61282001_1GCZ_R01_S0001_C0000_L00017_S0001_C0001_G0010_E0001
 52 53 0 0 0
SMALL
USER_CHARGES
@<TRIPOS>ATOM
       1 C1         0.9429   -1.3658   -0.9525 C.3       1 <0>        -0.1391 
       2 C2         0.0179   -0.1701   -0.7447 C.3       1 <0>        -0.1418 
       3 C3        -0.4460   -0.1374    0.6918 C.2       1 <0>         0.5169 
       4 O1        -0.0664   -1.0007    1.4815 O.2       1 <0>        -0.5335 
       5 N1        -1.2660    0.8255    1.1037 N.am      1 <0>        -0.7285 
       6 C4        -1.7175    0.8573    2.5022 C.3       1 <0>         0.1288 
       7 C5        -0.6040    1.3798    3.3780 C.2       1 <0>         0.4630 
       8 O2        -0.7320    2.4203    3.9515 O.2       1 <0>        -0.4988 
       9 O3         0.5370    0.6710    3.5132 O.3       1 <0>        -0.3175 
      10 C6         1.5633    1.2059    4.3530 C.3       1 <0>         0.0731 
      11 C7         2.7852    0.2929    4.3091 C.3       1 <0>        -0.1692 
      12 C8         1.0548    1.2967    5.7720 C.2       1 <0>         0.5202 
      13 O4         1.0327    2.3822    6.3499 O.2       1 <0>        -0.4963 
      14 N2         0.6308    0.2022    6.3973 N.am      1 <0>        -0.6538 
      15 C9         0.1541    0.2857    7.7269 C.ar      1 <0>         0.2101 
      16 C10        0.5108    1.3519    8.5610 C.ar      1 <0>        -0.1321 
      17 C11        0.0559    1.3674    9.8849 C.ar      1 <0>        -0.0675 
      18 C12       -0.7479    0.3266   10.3675 C.ar      1 <0>        -0.1401 
      19 C13       -1.1315   -0.7192    9.5195 C.ar      1 <0>        -0.0656 
      20 C14       -0.6645   -0.7467    8.2001 C.ar      1 <0>        -0.1718 
      21 C15       -0.9767   -1.8328    7.2444 C.2       1 <0>         0.5702 
      22 O5        -0.5223   -1.7958    6.1021 O.2       1 <0>        -0.5422 
      23 N3        -1.7486   -2.8482    7.6214 N.am      1 <0>        -0.7214 
      24 C16       -2.0587   -3.9270    6.6722 C.3       1 <0>         0.2043 
      25 C17       -0.8437   -4.8061    6.4963 C.2       1 <0>        -0.0464 
      26 C18        0.3399   -4.6532    7.1057 C.2       1 <0>        -0.1782 
      27 C19        1.1430   -5.7766    6.5733 C.2       1 <0>        -0.2183 
      28 C20        0.3078   -6.4161    5.7499 C.2       1 <0>        -0.0240 
      29 O6        -0.9728   -5.8831    5.6224 O.3       1 <0>        -0.1712 
      30 H1         0.4014   -2.2844   -0.7362 H         1 <0>         0.0628 
      31 H2         1.2877   -1.3817   -1.9843 H         1 <0>         0.0628 
      32 H3         1.7978   -1.2824   -0.2848 H         1 <0>         0.0640 
      33 H4        -0.8447   -0.2595   -1.4018 H         1 <0>         0.0966 
      34 H5         0.5547    0.7484   -0.9727 H         1 <0>         0.0966 
      35 H6        -1.5784    1.5349    0.4562 H         1 <0>         0.4131 
      36 H7        -2.5835    1.5101    2.5896 H         1 <0>         0.1171 
      37 H8        -1.9868   -0.1477    2.8200 H         1 <0>         0.1171 
      38 H9         1.8387    2.1986    4.0030 H         1 <0>         0.1185 
      39 H10        2.5057   -0.7026    4.6475 H         1 <0>         0.0777 
      40 H11        3.1596    0.2381    3.2890 H         1 <0>         0.0803 
      41 H12        3.5601    0.6934    4.9593 H         1 <0>         0.0842 
      42 H13        0.6490   -0.6891    5.9228 H         1 <0>         0.4245 
      43 H14        1.1348    2.1504    8.1878 H         1 <0>         0.1486 
      44 H15        0.3353    2.1817   10.5369 H         1 <0>         0.1348 
      45 H16       -1.0812    0.3312   11.3947 H         1 <0>         0.1332 
      46 H17       -1.7827   -1.4989    9.8861 H         1 <0>         0.1296 
      47 H18       -2.1213   -2.8776    8.5597 H         1 <0>         0.4054 
      48 H19       -2.3375   -3.4961    5.7129 H         1 <0>         0.1035 
      49 H20       -2.8846   -4.5215    7.0571 H         1 <0>         0.0890 
      50 H21        0.6602   -3.9052    7.8158 H         1 <0>         0.1520 
      51 H22        2.1679   -6.0288    6.8019 H         1 <0>         0.1526 
      52 H23        0.5682   -7.2980    5.1836 H         1 <0>         0.2068 
@<TRIPOS>BOND
       1        1        2 1        
       2        1       30 1        
       3        1       31 1        
       4        1       32 1        
       5        2        3 1        
       6        2       33 1        
       7        2       34 1        
       8        3        4 2        
       9        3        5 am       
      10        5        6 1        
      11        5       35 1        
      12        6        7 1        
      13        6       36 1        
      14        6       37 1        
      15        7        8 2        
      16        7        9 1        
      17        9       10 1        
      18       10       11 1        
      19       10       12 1        
      20       10       38 1        
      21       11       39 1        
      22       11       40 1        
      23       11       41 1        
      24       12       13 2        
      25       12       14 am       
      26       14       15 1        
      27       14       42 1        
      28       15       20 ar       
      29       15       16 ar       
      30       16       17 ar       
      31       16       43 1        
      32       17       18 ar       
      33       17       44 1        
      34       18       19 ar       
      35       18       45 1        
      36       19       20 ar       
      37       19       46 1        
      38       20       21 1        
      39       21       22 2        
      40       21       23 am       
      41       23       24 1        
      42       23       47 1        
      43       24       25 1        
      44       24       48 1        
      45       24       49 1        
      46       25       29 1        
      47       25       26 2        
      48       26       27 1        
      49       26       50 1        
      50       27       28 2        
      51       27       51 1        
      52       28       29 1        
      53       28       52 1        

