#        1GCZ_R01_S0001_C0000_L00017_S0001_C0002_G0010_E0001.mol2
#        Tue Jun  6 10:00:58 2017
#        Descriptor:     36     6    34     9     7    14
#        Energy - RMSD - RMSD MassCentre:     -62.7561    999.9999    999.9999
#        Receptor:       1  Surface Point:     1  Conformer:     0
#        Ligand:        17  Surface Point:     1  Conformer:     2
#        BUDE Formal Charge: 0
#        ATOM Count: 52
#        Heavy ATOM Count: 29
@<TRIPOS>MOLECULE
ZINC61282001_1GCZ_R01_S0001_C0000_L00017_S0001_C0002_G0010_E0001
 52 53 0 0 0
SMALL
USER_CHARGES
@<TRIPOS>ATOM
       1 C1         0.3116   -0.7486   -0.3362 C.3       1 <0>        -0.1391 
       2 C2        -0.2616    0.5422    0.2417 C.3       1 <0>        -0.1418 
       3 C3        -0.2249    0.4773    1.7498 C.2       1 <0>         0.5169 
       4 O1         0.2232   -0.5203    2.3127 O.2       1 <0>        -0.5335 
       5 N1        -0.6775    1.4997    2.4703 N.am      1 <0>        -0.7285 
       6 C4        -0.6417    1.4365    3.9383 C.3       1 <0>         0.1288 
       7 C5         0.7701    1.6761    4.4173 C.2       1 <0>         0.4630 
       8 O2         1.0264    2.6496    5.0611 O.2       1 <0>        -0.4988 
       9 O3         1.7435    0.7899    4.1179 O.3       1 <0>        -0.3175 
      10 C6         3.0650    1.0591    4.5932 C.3       1 <0>         0.0731 
      11 C7         4.0185   -0.0190    4.0861 C.3       1 <0>        -0.1692 
      12 C8         3.0653    1.0602    6.1033 C.2       1 <0>         0.5202 
      13 O4         3.4297    2.0611    6.7182 O.2       1 <0>        -0.4963 
      14 N2         2.6715   -0.0219    6.7687 N.am      1 <0>        -0.6538 
      15 C9         2.6714   -0.0225    8.1836 C.ar      1 <0>         0.2101 
      16 C10        3.4664    0.8715    8.9106 C.ar      1 <0>        -0.1321 
      17 C11        3.4721    0.8015   10.3088 C.ar      1 <0>        -0.0675 
      18 C12        2.6895   -0.1529   10.9712 C.ar      1 <0>        -0.1401 
      19 C13        1.8688   -1.0210   10.2415 C.ar      1 <0>        -0.0656 
      20 C14        1.8735   -0.9653    8.8427 C.ar      1 <0>        -0.1718 
      21 C15        1.0770   -1.8714    7.9853 C.2       1 <0>         0.5702 
      22 O5         1.1388   -1.7711    6.7610 O.2       1 <0>        -0.5422 
      23 N3         0.2948   -2.7935    8.5392 N.am      1 <0>        -0.7214 
      24 C16       -0.4964   -3.6933    7.6877 C.3       1 <0>         0.2043 
      25 C17       -0.8854   -4.9198    8.4780 C.2       1 <0>        -0.0464 
      26 C18       -2.0941   -5.1784    8.9955 C.2       1 <0>        -0.1782 
      27 C19       -1.9081   -6.4922    9.6514 C.2       1 <0>        -0.2183 
      28 C20       -0.6320   -6.8030    9.4077 C.2       1 <0>        -0.0240 
      29 O6         0.1082   -5.8752    8.6786 O.3       1 <0>        -0.1712 
      30 H1        -0.2905   -1.5922   -0.0050 H         1 <0>         0.0628 
      31 H2         0.2974   -0.6964   -1.4228 H         1 <0>         0.0628 
      32 H3         1.3357   -0.8759    0.0083 H         1 <0>         0.0640 
      33 H4        -1.2905    0.6636   -0.0905 H         1 <0>         0.0966 
      34 H5         0.3323    1.3879   -0.0988 H         1 <0>         0.0966 
      35 H6        -1.0457    2.3195    2.0092 H         1 <0>         0.4131 
      36 H7        -1.2984    2.1997    4.3509 H         1 <0>         0.1171 
      37 H8        -0.9741    0.4545    4.2680 H         1 <0>         0.1171 
      38 H9         3.3905    2.0319    4.2305 H         1 <0>         0.1185 
      39 H10        3.6849   -0.9925    4.4392 H         1 <0>         0.0777 
      40 H11        4.0284   -0.0109    2.9982 H         1 <0>         0.0803 
      41 H12        5.0208    0.1791    4.4599 H         1 <0>         0.0842 
      42 H13        2.3724   -0.8438    6.2637 H         1 <0>         0.4245 
      43 H14        4.0727    1.6030    8.3971 H         1 <0>         0.1486 
      44 H15        4.0907    1.4815   10.8757 H         1 <0>         0.1348 
      45 H16        2.7109   -0.2175   12.0490 H         1 <0>         0.1332 
      46 H17        1.2385   -1.7292   10.7590 H         1 <0>         0.1296 
      47 H18        0.2447   -2.8748    9.5448 H         1 <0>         0.4054 
      48 H19        0.0968   -3.9899    6.8251 H         1 <0>         0.1035 
      49 H20       -1.3935   -3.1780    7.3517 H         1 <0>         0.0890 
      50 H21       -3.0009   -4.5930    8.9599 H         1 <0>         0.1520 
      51 H22       -2.6374   -7.0727   10.1967 H         1 <0>         0.1526 
      52 H23       -0.1513   -7.7092    9.7455 H         1 <0>         0.2068 
@<TRIPOS>BOND
       1        1        2 1        
       2        1       30 1        
       3        1       31 1        
       4        1       32 1        
       5        2        3 1        
       6        2       33 1        
       7        2       34 1        
       8        3        4 2        
       9        3        5 am       
      10        5        6 1        
      11        5       35 1        
      12        6        7 1        
      13        6       36 1        
      14        6       37 1        
      15        7        8 2        
      16        7        9 1        
      17        9       10 1        
      18       10       11 1        
      19       10       12 1        
      20       10       38 1        
      21       11       39 1        
      22       11       40 1        
      23       11       41 1        
      24       12       13 2        
      25       12       14 am       
      26       14       15 1        
      27       14       42 1        
      28       15       20 ar       
      29       15       16 ar       
      30       16       17 ar       
      31       16       43 1        
      32       17       18 ar       
      33       17       44 1        
      34       18       19 ar       
      35       18       45 1        
      36       19       20 ar       
      37       19       46 1        
      38       20       21 1        
      39       21       22 2        
      40       21       23 am       
      41       23       24 1        
      42       23       47 1        
      43       24       25 1        
      44       24       48 1        
      45       24       49 1        
      46       25       29 1        
      47       25       26 2        
      48       26       27 1        
      49       26       50 1        
      50       27       28 2        
      51       27       51 1        
      52       28       29 1        
      53       28       52 1        

