#        1GCZ_R01_S0001_C0000_L00017_S0001_C0002_G0010_E0001.mol2
#        Tue Jun  6 14:18:18 2017
#        Descriptor:     36     7    36     8     7    14
#        Energy - RMSD - RMSD MassCentre:     -67.5668    999.9999    999.9999
#        Receptor:       1  Surface Point:     1  Conformer:     0
#        Ligand:        17  Surface Point:     1  Conformer:     2
#        BUDE Formal Charge: 0
#        ATOM Count: 52
#        Heavy ATOM Count: 29
@<TRIPOS>MOLECULE
ZINC61282001_1GCZ_R01_S0001_C0000_L00017_S0001_C0002_G0010_E0001
 52 53 0 0 0
SMALL
USER_CHARGES
@<TRIPOS>ATOM
       1 C1         0.3785   -0.9992   -0.3672 C.3       1 <0>        -0.1391 
       2 C2        -0.6870    0.0177    0.0317 C.3       1 <0>        -0.1418 
       3 C3        -0.8931   -0.0307    1.5268 C.2       1 <0>         0.5169 
       4 O1        -0.2401   -0.8149    2.2135 O.2       1 <0>        -0.5335 
       5 N1        -1.7814    0.7752    2.1017 N.am      1 <0>        -0.7285 
       6 C4        -1.9820    0.7281    3.5570 C.3       1 <0>         0.1288 
       7 C5        -0.8393    1.4361    4.2449 C.2       1 <0>         0.4630 
       8 O2        -1.0418    2.4385    4.8630 O.2       1 <0>        -0.4988 
       9 O3         0.4120    0.9362    4.1615 O.3       1 <0>        -0.3175 
      10 C6         1.4617    1.6412    4.8293 C.3       1 <0>         0.0731 
      11 C7         2.7953    0.9542    4.5495 C.3       1 <0>        -0.1692 
      12 C8         1.1994    1.6423    6.3163 C.2       1 <0>         0.5202 
      13 O4         1.0927    2.7075    6.9220 O.2       1 <0>        -0.4963 
      14 N2         1.0839    0.4908    6.9717 N.am      1 <0>        -0.6538 
      15 C9         0.8383    0.4902    8.3651 C.ar      1 <0>         0.2101 
      16 C10        1.1466    1.6022    9.1577 C.ar      1 <0>        -0.1321 
      17 C11        0.9327    1.5384   10.5398 C.ar      1 <0>        -0.0675 
      18 C12        0.4149    0.3739   11.1210 C.ar      1 <0>        -0.1401 
      19 C13        0.0745   -0.7226   10.3200 C.ar      1 <0>        -0.0656 
      20 C14        0.3030   -0.6686    8.9400 C.ar      1 <0>        -0.1718 
      21 C15        0.0200   -1.7925    8.0194 C.2       1 <0>         0.5702 
      22 O5         0.2561   -1.6771    6.8178 O.2       1 <0>        -0.5422 
      23 N3        -0.4895   -2.9265    8.4921 N.am      1 <0>        -0.7214 
      24 C16       -0.7706   -4.0427    7.5778 C.3       1 <0>         0.2043 
      25 C17       -0.8548   -5.3283    8.3655 C.2       1 <0>        -0.0464 
      26 C18       -1.9761   -5.9847    8.6933 C.2       1 <0>        -0.1782 
      27 C19       -1.4753   -7.1556    9.4476 C.2       1 <0>        -0.2183 
      28 C20       -0.1474   -7.0112    9.4342 C.2       1 <0>        -0.0240 
      29 O6         0.3517   -5.8862    8.7820 O.3       1 <0>        -0.1712 
      30 H1         0.0480   -1.9979   -0.0892 H         1 <0>         0.0628 
      31 H2         0.5365   -0.9550   -1.4427 H         1 <0>         0.0628 
      32 H3         1.3093   -0.7686    0.1467 H         1 <0>         0.0640 
      33 H4        -1.6224   -0.2201   -0.4705 H         1 <0>         0.0966 
      34 H5        -0.3631    1.0155   -0.2570 H         1 <0>         0.0966 
      35 H6        -2.3182    1.4196    1.5388 H         1 <0>         0.4131 
      36 H7        -2.9183    1.2206    3.8109 H         1 <0>         0.1171 
      37 H8        -2.0161   -0.3084    3.8858 H         1 <0>         0.1171 
      38 H9         1.4983    2.6666    4.4673 H         1 <0>         0.1185 
      39 H10        2.7532   -0.0747    4.9005 H         1 <0>         0.0777 
      40 H11        2.9906    0.9652    3.4792 H         1 <0>         0.0803 
      41 H12        3.5912    1.4832    5.0694 H         1 <0>         0.0842 
      42 H13        1.1716   -0.3838    6.4744 H         1 <0>         0.4245 
      43 H14        1.5505    2.4969    8.7075 H         1 <0>         0.1486 
      44 H15        1.1777    2.3889   11.1586 H         1 <0>         0.1348 
      45 H16        0.2693    0.3205   12.1898 H         1 <0>         0.1332 
      46 H17       -0.3600   -1.6036   10.7689 H         1 <0>         0.1296 
      47 H18       -0.6830   -3.0201    9.4790 H         1 <0>         0.4054 
      48 H19        0.0279   -4.1185    6.8428 H         1 <0>         0.1035 
      49 H20       -1.7161   -3.8653    7.0700 H         1 <0>         0.0890 
      50 H21       -3.0062   -5.7447    8.4755 H         1 <0>         0.1520 
      51 H22       -2.0494   -7.9505    9.9000 H         1 <0>         0.1526 
      52 H23        0.5440   -7.6984    9.8992 H         1 <0>         0.2068 
@<TRIPOS>BOND
       1        1        2 1        
       2        1       30 1        
       3        1       31 1        
       4        1       32 1        
       5        2        3 1        
       6        2       33 1        
       7        2       34 1        
       8        3        4 2        
       9        3        5 am       
      10        5        6 1        
      11        5       35 1        
      12        6        7 1        
      13        6       36 1        
      14        6       37 1        
      15        7        8 2        
      16        7        9 1        
      17        9       10 1        
      18       10       11 1        
      19       10       12 1        
      20       10       38 1        
      21       11       39 1        
      22       11       40 1        
      23       11       41 1        
      24       12       13 2        
      25       12       14 am       
      26       14       15 1        
      27       14       42 1        
      28       15       20 ar       
      29       15       16 ar       
      30       16       17 ar       
      31       16       43 1        
      32       17       18 ar       
      33       17       44 1        
      34       18       19 ar       
      35       18       45 1        
      36       19       20 ar       
      37       19       46 1        
      38       20       21 1        
      39       21       22 2        
      40       21       23 am       
      41       23       24 1        
      42       23       47 1        
      43       24       25 1        
      44       24       48 1        
      45       24       49 1        
      46       25       29 1        
      47       25       26 2        
      48       26       27 1        
      49       26       50 1        
      50       27       28 2        
      51       27       51 1        
      52       28       29 1        
      53       28       52 1        

