#        1GCZ_R01_S0001_C0000_L00017_S0001_C0003_G0010_E0001.mol2
#        Tue Jun  6 10:00:59 2017
#        Descriptor:      9     1    12     9     8    14
#        Energy - RMSD - RMSD MassCentre:     -65.3198    999.9999    999.9999
#        Receptor:       1  Surface Point:     1  Conformer:     0
#        Ligand:        17  Surface Point:     1  Conformer:     3
#        BUDE Formal Charge: 0
#        ATOM Count: 52
#        Heavy ATOM Count: 29
@<TRIPOS>MOLECULE
ZINC61282001_1GCZ_R01_S0001_C0000_L00017_S0001_C0003_G0010_E0001
 52 53 0 0 0
SMALL
USER_CHARGES
@<TRIPOS>ATOM
       1 C1         4.7255    1.0603    6.7959 C.3       1 <0>        -0.1391 
       2 C2         4.3306   -0.4005    6.9926 C.3       1 <0>        -0.1418 
       3 C3         3.8653   -0.9767    5.6767 C.2       1 <0>         0.5169 
       4 O1         3.8519   -0.2742    4.6671 O.2       1 <0>        -0.5335 
       5 N1         3.4696   -2.2447    5.6093 N.am      1 <0>        -0.7285 
       6 C4         3.4855   -3.0842    6.8158 C.3       1 <0>         0.1288 
       7 C5         2.3101   -2.7253    7.6931 C.2       1 <0>         0.4630 
       8 O2         2.4931   -2.2390    8.7691 O.2       1 <0>        -0.4988 
       9 O3         1.0516   -2.9541    7.2615 O.3       1 <0>        -0.3175 
      10 C6        -0.0295   -2.5978    8.1271 C.3       1 <0>         0.0731 
      11 C7        -1.3524   -3.0041    7.4841 C.3       1 <0>        -0.1692 
      12 C8        -0.0194   -1.1052    8.3553 C.2       1 <0>         0.5202 
      13 O4         0.0770   -0.6574    9.4968 O.2       1 <0>        -0.4963 
      14 N2        -0.1150   -0.2741    7.3214 N.am      1 <0>        -0.6538 
      15 C9        -0.1058    1.1248    7.5336 C.ar      1 <0>         0.2101 
      16 C10       -0.4441    1.6733    8.7763 C.ar      1 <0>        -0.1321 
      17 C11       -0.4697    3.0650    8.9263 C.ar      1 <0>        -0.0675 
      18 C12       -0.1590    3.8976    7.8436 C.ar      1 <0>        -0.1401 
      19 C13        0.2135    3.3443    6.6128 C.ar      1 <0>        -0.0656 
      20 C14        0.2236    1.9534    6.4544 C.ar      1 <0>        -0.1718 
      21 C15        0.5572    1.2777    5.1805 C.2       1 <0>         0.5702 
      22 O5         0.5355    0.0498    5.1121 O.2       1 <0>        -0.5422 
      23 N3         0.8805    1.9986    4.1106 N.am      1 <0>        -0.7214 
      24 C16        1.2120    1.3275    2.8455 C.3       1 <0>         0.2043 
      25 C17       -0.0522    0.7984    2.2113 C.2       1 <0>        -0.0464 
      26 C18       -1.2939    0.9174    2.7005 C.2       1 <0>        -0.1782 
      27 C19       -2.1250    0.2299    1.6870 C.2       1 <0>        -0.2183 
      28 C20       -1.2492   -0.1717    0.7617 C.2       1 <0>        -0.0240 
      29 O6         0.0900    0.1307    0.9971 O.3       1 <0>        -0.1712 
      30 H1         3.8625    1.6252    6.4494 H         1 <0>         0.0628 
      31 H2         5.0732    1.4718    7.7411 H         1 <0>         0.0628 
      32 H3         5.5216    1.1238    6.0571 H         1 <0>         0.0640 
      33 H4         3.5247   -0.4641    7.7208 H         1 <0>         0.0966 
      34 H5         5.1896   -0.9638    7.3510 H         1 <0>         0.0966 
      35 H6         3.1581   -2.6312    4.7296 H         1 <0>         0.4131 
      36 H7         3.4177   -4.1318    6.5304 H         1 <0>         0.1171 
      37 H8         4.4105   -2.9160    7.3633 H         1 <0>         0.1171 
      38 H9         0.0839   -3.1105    9.0801 H         1 <0>         0.1185 
      39 H10       -1.4589   -2.5005    6.5256 H         1 <0>         0.0777 
      40 H11       -1.3651   -4.0814    7.3319 H         1 <0>         0.0803 
      41 H12       -2.1748   -2.7199    8.1372 H         1 <0>         0.0842 
      42 H13       -0.1943   -0.6418    6.3841 H         1 <0>         0.4245 
      43 H14       -0.6882    1.0290    9.6079 H         1 <0>         0.1486 
      44 H15       -0.7395    3.4953    9.8794 H         1 <0>         0.1348 
      45 H16       -0.1985    4.9709    7.9567 H         1 <0>         0.1332 
      46 H17        0.4891    3.9907    5.7926 H         1 <0>         0.1296 
      47 H18        0.8981    3.0069    4.1680 H         1 <0>         0.4054 
      48 H19        1.8933    0.5022    3.0411 H         1 <0>         0.1035 
      49 H20        1.6862    2.0382    2.1721 H         1 <0>         0.0890 
      50 H21       -1.6369    1.3924    3.6078 H         1 <0>         0.1520 
      51 H22       -3.1958    0.0897    1.6886 H         1 <0>         0.1526 
      52 H23       -1.5156   -0.7137   -0.1336 H         1 <0>         0.2068 
@<TRIPOS>BOND
       1        1        2 1        
       2        1       30 1        
       3        1       31 1        
       4        1       32 1        
       5        2        3 1        
       6        2       33 1        
       7        2       34 1        
       8        3        4 2        
       9        3        5 am       
      10        5        6 1        
      11        5       35 1        
      12        6        7 1        
      13        6       36 1        
      14        6       37 1        
      15        7        8 2        
      16        7        9 1        
      17        9       10 1        
      18       10       11 1        
      19       10       12 1        
      20       10       38 1        
      21       11       39 1        
      22       11       40 1        
      23       11       41 1        
      24       12       13 2        
      25       12       14 am       
      26       14       15 1        
      27       14       42 1        
      28       15       20 ar       
      29       15       16 ar       
      30       16       17 ar       
      31       16       43 1        
      32       17       18 ar       
      33       17       44 1        
      34       18       19 ar       
      35       18       45 1        
      36       19       20 ar       
      37       19       46 1        
      38       20       21 1        
      39       21       22 2        
      40       21       23 am       
      41       23       24 1        
      42       23       47 1        
      43       24       25 1        
      44       24       48 1        
      45       24       49 1        
      46       25       29 1        
      47       25       26 2        
      48       26       27 1        
      49       26       50 1        
      50       27       28 2        
      51       27       51 1        
      52       28       29 1        
      53       28       52 1        

