#        1GCZ_R01_S0001_C0000_L00017_S0001_C0003_G0010_E0001.mol2
#        Tue Jun  6 14:18:20 2017
#        Descriptor:     10     2    13    10     8    14
#        Energy - RMSD - RMSD MassCentre:     -62.9544    999.9999    999.9999
#        Receptor:       1  Surface Point:     1  Conformer:     0
#        Ligand:        17  Surface Point:     1  Conformer:     3
#        BUDE Formal Charge: 0
#        ATOM Count: 52
#        Heavy ATOM Count: 29
@<TRIPOS>MOLECULE
ZINC61282001_1GCZ_R01_S0001_C0000_L00017_S0001_C0003_G0010_E0001
 52 53 0 0 0
SMALL
USER_CHARGES
@<TRIPOS>ATOM
       1 C1         5.5001    1.8400    5.9933 C.3       1 <0>        -0.1391 
       2 C2         5.4790    0.3246    6.1712 C.3       1 <0>        -0.1418 
       3 C3         4.8438   -0.3146    4.9597 C.2       1 <0>         0.5169 
       4 O1         4.4422    0.3868    4.0325 O.2       1 <0>        -0.5335 
       5 N1         4.7183   -1.6371    4.8950 N.am      1 <0>        -0.7285 
       6 C4         5.1980   -2.4754    6.0030 C.3       1 <0>         0.1288 
       7 C5         4.2184   -2.4014    7.1498 C.2       1 <0>         0.4630 
       8 O2         4.5476   -1.9074    8.1868 O.2       1 <0>        -0.4988 
       9 O3         2.9700   -2.8937    7.0032 O.3       1 <0>        -0.3175 
      10 C6         2.0776   -2.8012    8.1168 C.3       1 <0>         0.0731 
      11 C7         0.7547   -3.4767    7.7672 C.3       1 <0>        -0.1692 
      12 C8         1.8289   -1.3477    8.4418 C.2       1 <0>         0.5202 
      13 O4         2.0997   -0.9116    9.5596 O.2       1 <0>        -0.4963 
      14 N2         1.3166   -0.5385    7.5190 N.am      1 <0>        -0.6538 
      15 C9         1.0829    0.8237    7.8221 C.ar      1 <0>         0.2101 
      16 C10        0.9446    1.2602    9.1450 C.ar      1 <0>        -0.1321 
      17 C11        0.6646    2.6089    9.3953 C.ar      1 <0>        -0.0675 
      18 C12        0.5255    3.5102    8.3320 C.ar      1 <0>        -0.1401 
      19 C13        0.7001    3.0762    7.0125 C.ar      1 <0>        -0.0656 
      20 C14        0.9632    1.7251    6.7578 C.ar      1 <0>        -0.1718 
      21 C15        1.1163    1.1641    5.3967 C.2       1 <0>         0.5702 
      22 O5         1.3367   -0.0368    5.2482 O.2       1 <0>        -0.5422 
      23 N3         1.0156    1.9589    4.3351 N.am      1 <0>        -0.7214 
      24 C16        1.1678    1.4018    2.9833 C.3       1 <0>         0.2043 
      25 C17       -0.0716    0.6193    2.6201 C.2       1 <0>        -0.0464 
      26 C18       -1.1567    0.4522    3.3883 C.2       1 <0>        -0.1782 
      27 C19       -2.0431   -0.3820    2.5463 C.2       1 <0>        -0.2183 
      28 C20       -1.3501   -0.5628    1.4187 C.2       1 <0>        -0.0240 
      29 O6        -0.0874    0.0228    1.3614 O.3       1 <0>        -0.1712 
      30 H1         4.4807    2.2073    5.8949 H         1 <0>         0.0628 
      31 H2         5.9698    2.2998    6.8603 H         1 <0>         0.0628 
      32 H3         6.0648    2.0916    5.0980 H         1 <0>         0.0640 
      33 H4         4.9027    0.0709    7.0585 H         1 <0>         0.0966 
      34 H5         6.4973   -0.0423    6.2821 H         1 <0>         0.0966 
      35 H6         4.2934   -2.0658    4.0851 H         1 <0>         0.4131 
      36 H7         5.2851   -3.5066    5.6672 H         1 <0>         0.1171 
      37 H8         6.1708   -2.1180    6.3342 H         1 <0>         0.1171 
      38 H9         2.5206   -3.2944    8.9794 H         1 <0>         0.1185 
      39 H10        0.3188   -2.9907    6.8969 H         1 <0>         0.0777 
      40 H11        0.9320   -4.5271    7.5459 H         1 <0>         0.0803 
      41 H12        0.0717   -3.3933    8.6099 H         1 <0>         0.0842 
      42 H13        1.0942   -0.8965    6.6013 H         1 <0>         0.4245 
      43 H14        1.0473    0.5622    9.9626 H         1 <0>         0.1486 
      44 H15        0.5467    2.9508   10.4129 H         1 <0>         0.1348 
      45 H16        0.2901    4.5460    8.5271 H         1 <0>         0.1332 
      46 H17        0.6296    3.7831    6.1990 H         1 <0>         0.1296 
      47 H18        0.8347    2.9450    4.4583 H         1 <0>         0.4054 
      48 H19        2.0335    0.7434    2.9584 H         1 <0>         0.1035 
      49 H20        1.3072    2.2124    2.2712 H         1 <0>         0.0890 
      50 H21       -1.3642    0.8224    4.3814 H         1 <0>         0.1520 
      51 H22       -3.0285   -0.7547    2.7835 H         1 <0>         0.1526 
      52 H23       -1.7032   -1.1329    0.5722 H         1 <0>         0.2068 
@<TRIPOS>BOND
       1        1        2 1        
       2        1       30 1        
       3        1       31 1        
       4        1       32 1        
       5        2        3 1        
       6        2       33 1        
       7        2       34 1        
       8        3        4 2        
       9        3        5 am       
      10        5        6 1        
      11        5       35 1        
      12        6        7 1        
      13        6       36 1        
      14        6       37 1        
      15        7        8 2        
      16        7        9 1        
      17        9       10 1        
      18       10       11 1        
      19       10       12 1        
      20       10       38 1        
      21       11       39 1        
      22       11       40 1        
      23       11       41 1        
      24       12       13 2        
      25       12       14 am       
      26       14       15 1        
      27       14       42 1        
      28       15       20 ar       
      29       15       16 ar       
      30       16       17 ar       
      31       16       43 1        
      32       17       18 ar       
      33       17       44 1        
      34       18       19 ar       
      35       18       45 1        
      36       19       20 ar       
      37       19       46 1        
      38       20       21 1        
      39       21       22 2        
      40       21       23 am       
      41       23       24 1        
      42       23       47 1        
      43       24       25 1        
      44       24       48 1        
      45       24       49 1        
      46       25       29 1        
      47       25       26 2        
      48       26       27 1        
      49       26       50 1        
      50       27       28 2        
      51       27       51 1        
      52       28       29 1        
      53       28       52 1        

