#        1GCZ_R01_S0001_C0000_L00003_S0001_C0035_G0010_E0001.mol2
#        Tue Jun  6 09:55:05 2017
#        Descriptor:     20    13    20     8     7    14
#        Energy - RMSD - RMSD MassCentre:     -61.4204    999.9999    999.9999
#        Receptor:       1  Surface Point:     1  Conformer:     0
#        Ligand:         3  Surface Point:     1  Conformer:    35
#        BUDE Formal Charge: 0
#        ATOM Count: 58
#        Heavy ATOM Count: 30
@<TRIPOS>MOLECULE
ZINC61580633_1GCZ_R01_S0001_C0000_L00003_S0001_C0035_G0010_E0001
 58 59 0 0 0
SMALL
USER_CHARGES
@<TRIPOS>ATOM
       1 C1         0.9184   -1.0701    0.5998 C.3       1 <0>        -0.1532 
       2 C2        -0.5272   -0.6325    0.8171 C.3       1 <0>        -0.1224 
       3 C3        -0.8561   -0.6868    2.3084 C.3       1 <0>        -0.1198 
       4 C4        -2.3037   -0.2488    2.5261 C.3       1 <0>         0.0610 
       5 O1        -2.6114   -0.2996    3.9217 O.3       1 <0>        -0.3878 
       6 C5        -1.7751    0.5729    4.6858 C.3       1 <0>         0.0487 
       7 C6        -2.1518    0.4735    6.1633 C.3       1 <0>         0.1244 
       8 N1        -1.2921    1.3704    6.9488 N.am      1 <0>        -0.7216 
       9 C7        -1.4424    1.4483    8.2680 C.2       1 <0>         0.5161 
      10 O2        -0.7237    2.1984    8.9264 O.2       1 <0>        -0.5151 
      11 C8        -2.4960    0.6152    8.9578 C.3       1 <0>         0.0490 
      12 O3        -2.1168   -0.7629    8.9144 O.3       1 <0>        -0.3194 
      13 C9        -2.9426   -1.6652    9.4855 C.2       1 <0>         0.5417 
      14 O4        -3.9766   -1.2960   10.0175 O.2       1 <0>        -0.5337 
      15 C10       -2.5934   -3.1032    9.4663 C.2       1 <0>        -0.2559 
      16 C11       -3.4180   -4.1722   10.0728 C.2       1 <0>        -0.0791 
      17 C12       -2.8706   -5.3811    9.9276 C.2       1 <0>        -0.2585 
      18 S1        -1.3338   -5.3337    9.0511 S.3       1 <0>         0.3028 
      19 C13       -1.4749   -3.5759    8.8998 C.2       1 <0>         0.0893 
      20 N2        -0.5627   -2.7553    8.2905 N.am      1 <0>        -0.6099 
      21 C14        0.5339   -3.2701    7.7416 C.2       1 <0>         0.5551 
      22 O5         0.7291   -4.4839    7.7808 O.2       1 <0>        -0.4939 
      23 C15        1.5183   -2.3822    7.0837 C.ar      1 <0>        -0.1466 
      24 C16        2.6599   -2.9661    6.5216 C.ar      1 <0>        -0.0772 
      25 C17        3.6618   -2.1720    5.9511 C.ar      1 <0>        -0.1241 
      26 C18        3.5452   -0.7771    5.9413 C.ar      1 <0>        -0.0446 
      27 C19        2.3807   -0.1936    6.4547 C.ar      1 <0>        -0.1261 
      28 C20        1.3680   -0.9930    6.9980 C.ar      1 <0>        -0.0460 
      29 C21        4.6649    0.0646    5.3773 C.3       1 <0>        -0.0928 
      30 C22        5.6485    0.4131    6.4906 C.3       1 <0>        -0.1485 
      31 H1         1.0441   -2.0920    0.9511 H         1 <0>         0.0567 
      32 H2         1.5833   -0.4111    1.1539 H         1 <0>         0.0554 
      33 H3         1.1566   -1.0185   -0.4605 H         1 <0>         0.0557 
      34 H4        -0.6573    0.3851    0.4546 H         1 <0>         0.0632 
      35 H5        -1.1942   -1.2993    0.2748 H         1 <0>         0.0635 
      36 H6        -0.7273   -1.7041    2.6720 H         1 <0>         0.0711 
      37 H7        -0.1903   -0.0196    2.8518 H         1 <0>         0.0704 
      38 H8        -2.4337    0.7689    2.1636 H         1 <0>         0.0498 
      39 H9        -2.9706   -0.9157    1.9838 H         1 <0>         0.0505 
      40 H10       -1.9117    1.5973    4.3456 H         1 <0>         0.0584 
      41 H11       -0.7343    0.2833    4.5574 H         1 <0>         0.0702 
      42 H12       -2.0147   -0.5504    6.5049 H         1 <0>         0.0872 
      43 H13       -3.1922    0.7637    6.2931 H         1 <0>         0.0805 
      44 H14       -0.5873    1.9277    6.4874 H         1 <0>         0.4058 
      45 H15       -2.5892    0.9326    9.9942 H         1 <0>         0.1008 
      46 H16       -3.4502    0.7442    8.4512 H         1 <0>         0.0999 
      47 H17       -4.3601   -3.9746   10.5625 H         1 <0>         0.1557 
      48 H18       -3.3353   -6.2824   10.2990 H         1 <0>         0.1929 
      49 H19       -0.7229   -1.7586    8.2583 H         1 <0>         0.4317 
      50 H20        2.7733   -4.0400    6.5310 H         1 <0>         0.1287 
      51 H21        4.5350   -2.6340    5.5150 H         1 <0>         0.1326 
      52 H22        2.2733    0.8806    6.4219 H         1 <0>         0.1342 
      53 H23        0.4686   -0.4920    7.3242 H         1 <0>         0.1410 
      54 H24        4.2532    0.9796    4.9565 H         1 <0>         0.0777 
      55 H25        5.1804   -0.4935    4.5985 H         1 <0>         0.0771 
      56 H26        6.0687   -0.5022    6.9020 H         1 <0>         0.0623 
      57 H27        5.1286    0.9589    7.2753 H         1 <0>         0.0572 
      58 H28        6.4480    1.0307    6.0869 H         1 <0>         0.0578 
@<TRIPOS>BOND
       1        1        2 1        
       2        1       31 1        
       3        1       32 1        
       4        1       33 1        
       5        2        3 1        
       6        2       34 1        
       7        2       35 1        
       8        3        4 1        
       9        3       36 1        
      10        3       37 1        
      11        4        5 1        
      12        4       38 1        
      13        4       39 1        
      14        5        6 1        
      15        6        7 1        
      16        6       40 1        
      17        6       41 1        
      18        7        8 1        
      19        7       42 1        
      20        7       43 1        
      21        8        9 am       
      22        8       44 1        
      23        9       10 2        
      24        9       11 1        
      25       11       12 1        
      26       11       45 1        
      27       11       46 1        
      28       12       13 1        
      29       13       14 2        
      30       13       15 1        
      31       15       19 2        
      32       15       16 1        
      33       16       17 2        
      34       16       47 1        
      35       17       18 1        
      36       17       48 1        
      37       18       19 1        
      38       19       20 1        
      39       20       21 am       
      40       20       49 1        
      41       21       22 2        
      42       21       23 1        
      43       23       28 ar       
      44       23       24 ar       
      45       24       25 ar       
      46       24       50 1        
      47       25       26 ar       
      48       25       51 1        
      49       26       27 ar       
      50       26       29 1        
      51       27       28 ar       
      52       27       52 1        
      53       28       53 1        
      54       29       30 1        
      55       29       54 1        
      56       29       55 1        
      57       30       56 1        
      58       30       57 1        
      59       30       58 1        

