#        1GCZ_R01_S0001_C0000_L00017_S0001_C0004_G0010_E0001.mol2
#        Tue Jun  6 10:01:00 2017
#        Descriptor:      2    27    13    10     7    14
#        Energy - RMSD - RMSD MassCentre:     -65.6957    999.9999    999.9999
#        Receptor:       1  Surface Point:     1  Conformer:     0
#        Ligand:        17  Surface Point:     1  Conformer:     4
#        BUDE Formal Charge: 0
#        ATOM Count: 52
#        Heavy ATOM Count: 29
@<TRIPOS>MOLECULE
ZINC61282001_1GCZ_R01_S0001_C0000_L00017_S0001_C0004_G0010_E0001
 52 53 0 0 0
SMALL
USER_CHARGES
@<TRIPOS>ATOM
       1 C1         5.8922   -3.4394    6.9815 C.3       1 <0>        -0.1391 
       2 C2         4.6758   -2.5608    6.7033 C.3       1 <0>        -0.1418 
       3 C3         3.4153   -3.3545    6.9516 C.2       1 <0>         0.5169 
       4 O1         2.6159   -3.5430    6.0361 O.2       1 <0>        -0.5335 
       5 N1         3.1695   -3.8500    8.1611 N.am      1 <0>        -0.7285 
       6 C4         1.9425   -4.6226    8.4028 C.3       1 <0>         0.1288 
       7 C5         0.7680   -3.6797    8.5097 C.2       1 <0>         0.4630 
       8 O2         0.1775   -3.5743    9.5432 O.2       1 <0>        -0.4988 
       9 O3         0.3847   -2.9553    7.4370 O.3       1 <0>        -0.3175 
      10 C6        -0.7330   -2.0759    7.5861 C.3       1 <0>         0.0731 
      11 C7        -1.9672   -2.8825    7.9798 C.3       1 <0>        -0.1692 
      12 C8        -0.9923   -1.3668    6.2784 C.2       1 <0>         0.5202 
      13 O4        -2.0984   -1.4422    5.7458 O.2       1 <0>        -0.4963 
      14 N2        -0.0241   -0.6603    5.7021 N.am      1 <0>        -0.6538 
      15 C9        -0.2654    0.0047    4.4767 C.ar      1 <0>         0.2101 
      16 C10       -1.3040   -0.3932    3.6265 C.ar      1 <0>        -0.1321 
      17 C11       -1.4744    0.2617    2.4009 C.ar      1 <0>        -0.0675 
      18 C12       -0.6146    1.3040    2.0318 C.ar      1 <0>        -0.1401 
      19 C13        0.4001    1.7222    2.9009 C.ar      1 <0>        -0.0656 
      20 C14        0.5842    1.0584    4.1196 C.ar      1 <0>        -0.1718 
      21 C15        1.6570    1.3969    5.0814 C.2       1 <0>         0.5702 
      22 O5         1.7650    0.7627    6.1298 O.2       1 <0>        -0.5422 
      23 N3         2.5036    2.3865    4.8115 N.am      1 <0>        -0.7214 
      24 C16        3.5691    2.7227    5.7668 C.3       1 <0>         0.2043 
      25 C17        4.6493    1.6693    5.7057 C.2       1 <0>        -0.0464 
      26 C18        4.6622    0.5929    4.9078 C.2       1 <0>        -0.1782 
      27 C19        5.9345   -0.0758    5.2609 C.2       1 <0>        -0.2183 
      28 C20        6.4718    0.7133    6.1953 C.2       1 <0>        -0.0240 
      29 O6         5.7391    1.8417    6.5560 O.3       1 <0>        -0.1712 
      30 H1         5.8790   -4.2979    6.3132 H         1 <0>         0.0628 
      31 H2         6.8002   -2.8636    6.8154 H         1 <0>         0.0628 
      32 H3         5.8628   -3.7820    8.0137 H         1 <0>         0.0640 
      33 H4         4.6965   -2.2291    5.6674 H         1 <0>         0.0966 
      34 H5         4.6944   -1.6954    7.3625 H         1 <0>         0.0966 
      35 H6         3.8253   -3.6958    8.9137 H         1 <0>         0.4131 
      36 H7         1.7791   -5.3124    7.5776 H         1 <0>         0.1171 
      37 H8         2.0427   -5.1828    9.3301 H         1 <0>         0.1171 
      38 H9        -0.5169   -1.3416    8.3594 H         1 <0>         0.1185 
      39 H10       -2.1748   -3.6246    7.2117 H         1 <0>         0.0777 
      40 H11       -1.7851   -3.3827    8.9285 H         1 <0>         0.0803 
      41 H12       -2.8199   -2.2142    8.0791 H         1 <0>         0.0842 
      42 H13        0.8842   -0.5984    6.1394 H         1 <0>         0.4245 
      43 H14       -1.9623   -1.2006    3.9114 H         1 <0>         0.1486 
      44 H15       -2.2673   -0.0466    1.7356 H         1 <0>         0.1348 
      45 H16       -0.7362    1.7944    1.0773 H         1 <0>         0.1332 
      46 H17        1.0358    2.5515    2.6277 H         1 <0>         0.1296 
      47 H18        2.4139    2.9066    3.9503 H         1 <0>         0.4054 
      48 H19        3.1552    2.7608    6.7722 H         1 <0>         0.1035 
      49 H20        3.9920    3.6919    5.5111 H         1 <0>         0.0890 
      50 H21        3.9380    0.2660    4.1763 H         1 <0>         0.1520 
      51 H22        6.3417   -0.9890    4.8529 H         1 <0>         0.1526 
      52 H23        7.4171    0.5234    6.6819 H         1 <0>         0.2068 
@<TRIPOS>BOND
       1        1        2 1        
       2        1       30 1        
       3        1       31 1        
       4        1       32 1        
       5        2        3 1        
       6        2       33 1        
       7        2       34 1        
       8        3        4 2        
       9        3        5 am       
      10        5        6 1        
      11        5       35 1        
      12        6        7 1        
      13        6       36 1        
      14        6       37 1        
      15        7        8 2        
      16        7        9 1        
      17        9       10 1        
      18       10       11 1        
      19       10       12 1        
      20       10       38 1        
      21       11       39 1        
      22       11       40 1        
      23       11       41 1        
      24       12       13 2        
      25       12       14 am       
      26       14       15 1        
      27       14       42 1        
      28       15       20 ar       
      29       15       16 ar       
      30       16       17 ar       
      31       16       43 1        
      32       17       18 ar       
      33       17       44 1        
      34       18       19 ar       
      35       18       45 1        
      36       19       20 ar       
      37       19       46 1        
      38       20       21 1        
      39       21       22 2        
      40       21       23 am       
      41       23       24 1        
      42       23       47 1        
      43       24       25 1        
      44       24       48 1        
      45       24       49 1        
      46       25       29 1        
      47       25       26 2        
      48       26       27 1        
      49       26       50 1        
      50       27       28 2        
      51       27       51 1        
      52       28       29 1        
      53       28       52 1        

