#        1GCZ_R01_S0001_C0000_L00017_S0001_C0004_G0010_E0001.mol2
#        Tue Jun  6 14:18:22 2017
#        Descriptor:     36    31    13    11     7    14
#        Energy - RMSD - RMSD MassCentre:     -64.5719    999.9999    999.9999
#        Receptor:       1  Surface Point:     1  Conformer:     0
#        Ligand:        17  Surface Point:     1  Conformer:     4
#        BUDE Formal Charge: 0
#        ATOM Count: 52
#        Heavy ATOM Count: 29
@<TRIPOS>MOLECULE
ZINC61282001_1GCZ_R01_S0001_C0000_L00017_S0001_C0004_G0010_E0001
 52 53 0 0 0
SMALL
USER_CHARGES
@<TRIPOS>ATOM
       1 C1         7.3524   -1.7950    4.4227 C.3       1 <0>        -0.1391 
       2 C2         5.9807   -1.4710    5.0077 C.3       1 <0>        -0.1418 
       3 C3         5.1229   -2.7137    4.9956 C.2       1 <0>         0.5169 
       4 O1         4.0724   -2.7307    4.3562 O.2       1 <0>        -0.5335 
       5 N1         5.5037   -3.7906    5.6769 N.am      1 <0>        -0.7285 
       6 C4         4.6688   -5.0004    5.6651 C.3       1 <0>         0.1288 
       7 C5         3.4804   -4.7995    6.5748 C.2       1 <0>         0.4630 
       8 O2         3.3618   -5.4652    7.5600 O.2       1 <0>        -0.4988 
       9 O3         2.5514   -3.8671    6.2749 O.3       1 <0>        -0.3175 
      10 C6         1.4436   -3.7131    7.1660 C.3       1 <0>         0.0731 
      11 C7         0.6719   -5.0268    7.2517 C.3       1 <0>        -0.1692 
      12 C8         0.5307   -2.6268    6.6496 C.2       1 <0>         0.5202 
      13 O4        -0.6567   -2.8689    6.4392 O.2       1 <0>        -0.4963 
      14 N2         1.0108   -1.4076    6.4220 N.am      1 <0>        -0.6538 
      15 C9         0.1567   -0.3887    5.9380 C.ar      1 <0>         0.2101 
      16 C10       -1.0372   -0.6958    5.2747 C.ar      1 <0>        -0.1321 
      17 C11       -1.8265    0.3440    4.7688 C.ar      1 <0>        -0.0675 
      18 C12       -1.4244    1.6765    4.9267 C.ar      1 <0>        -0.1401 
      19 C13       -0.2480    1.9803    5.6219 C.ar      1 <0>        -0.0656 
      20 C14        0.5523    0.9425    6.1141 C.ar      1 <0>        -0.1718 
      21 C15        1.8348    1.1626    6.8195 C.2       1 <0>         0.5702 
      22 O5         2.4911    0.2009    7.2158 O.2       1 <0>        -0.5422 
      23 N3         2.2766    2.4003    7.0243 N.am      1 <0>        -0.7214 
      24 C16        3.5503    2.6189    7.7250 C.3       1 <0>         0.2043 
      25 C17        4.6959    2.2722    6.8044 C.2       1 <0>        -0.0464 
      26 C18        4.5937    1.8400    5.5402 C.2       1 <0>        -0.1782 
      27 C19        6.0040    1.6636    5.1271 C.2       1 <0>        -0.2183 
      28 C20        6.7090    2.0288    6.2014 C.2       1 <0>        -0.0240 
      29 O6         5.9806    2.4260    7.3204 O.3       1 <0>        -0.1712 
      30 H1         7.2368   -2.1334    3.3951 H         1 <0>         0.0628 
      31 H2         7.9747   -0.9029    4.4437 H         1 <0>         0.0628 
      32 H3         7.8215   -2.5794    5.0130 H         1 <0>         0.0640 
      33 H4         5.5044   -0.6966    4.4100 H         1 <0>         0.0966 
      34 H5         6.0959   -1.1205    6.0313 H         1 <0>         0.0966 
      35 H6         6.3663   -3.7778    6.2024 H         1 <0>         0.4131 
      36 H7         4.3211   -5.1920    4.6523 H         1 <0>         0.1171 
      37 H8         5.2533   -5.8486    6.0151 H         1 <0>         0.1171 
      38 H9         1.8077   -3.4404    8.1544 H         1 <0>         0.1185 
      39 H10        0.3191   -5.3047    6.2607 H         1 <0>         0.0777 
      40 H11        1.3260   -5.8063    7.6363 H         1 <0>         0.0803 
      41 H12       -0.1786   -4.9042    7.9189 H         1 <0>         0.0842 
      42 H13        1.9858   -1.2089    6.5947 H         1 <0>         0.4245 
      43 H14       -1.3422   -1.7243    5.1500 H         1 <0>         0.1486 
      44 H15       -2.7438    0.1140    4.2473 H         1 <0>         0.1348 
      45 H16       -2.0253    2.4756    4.5184 H         1 <0>         0.1332 
      46 H17        0.0374    3.0108    5.7738 H         1 <0>         0.1296 
      47 H18        1.7367    3.1893    6.6985 H         1 <0>         0.4054 
      48 H19        3.5904    1.9863    8.6092 H         1 <0>         0.1035 
      49 H20        3.6257    3.6629    8.0215 H         1 <0>         0.0890 
      50 H21        3.7138    1.6560    4.9416 H         1 <0>         0.1520 
      51 H22        6.3804    1.3244    4.1734 H         1 <0>         0.1526 
      52 H23        7.7877    2.0240    6.2516 H         1 <0>         0.2068 
@<TRIPOS>BOND
       1        1        2 1        
       2        1       30 1        
       3        1       31 1        
       4        1       32 1        
       5        2        3 1        
       6        2       33 1        
       7        2       34 1        
       8        3        4 2        
       9        3        5 am       
      10        5        6 1        
      11        5       35 1        
      12        6        7 1        
      13        6       36 1        
      14        6       37 1        
      15        7        8 2        
      16        7        9 1        
      17        9       10 1        
      18       10       11 1        
      19       10       12 1        
      20       10       38 1        
      21       11       39 1        
      22       11       40 1        
      23       11       41 1        
      24       12       13 2        
      25       12       14 am       
      26       14       15 1        
      27       14       42 1        
      28       15       20 ar       
      29       15       16 ar       
      30       16       17 ar       
      31       16       43 1        
      32       17       18 ar       
      33       17       44 1        
      34       18       19 ar       
      35       18       45 1        
      36       19       20 ar       
      37       19       46 1        
      38       20       21 1        
      39       21       22 2        
      40       21       23 am       
      41       23       24 1        
      42       23       47 1        
      43       24       25 1        
      44       24       48 1        
      45       24       49 1        
      46       25       29 1        
      47       25       26 2        
      48       26       27 1        
      49       26       50 1        
      50       27       28 2        
      51       27       51 1        
      52       28       29 1        
      53       28       52 1        

