#        1GCZ_R01_S0001_C0000_L00017_S0001_C0005_G0010_E0001.mol2
#        Tue Jun  6 10:01:01 2017
#        Descriptor:     12     5    10     9     5    15
#        Energy - RMSD - RMSD MassCentre:     -70.8374    999.9999    999.9999
#        Receptor:       1  Surface Point:     1  Conformer:     0
#        Ligand:        17  Surface Point:     1  Conformer:     5
#        BUDE Formal Charge: 0
#        ATOM Count: 52
#        Heavy ATOM Count: 29
@<TRIPOS>MOLECULE
ZINC61282001_1GCZ_R01_S0001_C0000_L00017_S0001_C0005_G0010_E0001
 52 53 0 0 0
SMALL
USER_CHARGES
@<TRIPOS>ATOM
       1 C1        -1.1825   -9.2447    9.8991 C.3       1 <0>        -0.1391 
       2 C2        -1.5091   -7.7973    9.5431 C.3       1 <0>        -0.1418 
       3 C3        -1.0918   -7.5239    8.1178 C.2       1 <0>         0.5169 
       4 O1        -0.5760   -8.4153    7.4455 O.2       1 <0>        -0.5335 
       5 N1        -1.2819   -6.3183    7.5893 N.am      1 <0>        -0.7285 
       6 C4        -0.8757   -6.0522    6.2020 C.3       1 <0>         0.1288 
       7 C5         0.6236   -5.8830    6.1411 C.2       1 <0>         0.4630 
       8 O2         1.2908   -6.6723    5.5415 O.2       1 <0>        -0.4988 
       9 O3         1.2105   -4.8393    6.7645 O.3       1 <0>        -0.3175 
      10 C6         2.6330   -4.7207    6.6792 C.3       1 <0>         0.0731 
      11 C7         3.2851   -5.9604    7.2846 C.3       1 <0>        -0.1692 
      12 C8         3.0815   -3.4951    7.4388 C.2       1 <0>         0.5202 
      13 O4         3.9110   -3.5993    8.3410 O.2       1 <0>        -0.4963 
      14 N2         2.5791   -2.3025    7.1324 N.am      1 <0>        -0.6538 
      15 C9         2.9982   -1.1532    7.8434 C.ar      1 <0>         0.2101 
      16 C10        3.5643   -1.2548    9.1197 C.ar      1 <0>        -0.1321 
      17 C11        3.9185   -0.0874    9.8065 C.ar      1 <0>        -0.0675 
      18 C12        3.7087    1.1675    9.2208 C.ar      1 <0>        -0.1401 
      19 C13        3.1756    1.2628    7.9299 C.ar      1 <0>        -0.0656 
      20 C14        2.8044    0.0984    7.2470 C.ar      1 <0>        -0.1718 
      21 C15        2.1904    0.1005    5.9003 C.2       1 <0>         0.5702 
      22 O5         1.8800   -0.9624    5.3648 O.2       1 <0>        -0.5422 
      23 N3         1.9749    1.2516    5.2700 N.am      1 <0>        -0.7214 
      24 C16        1.3651    1.2536    3.9324 C.3       1 <0>         0.2043 
      25 C17       -0.1084    0.9461    4.0516 C.2       1 <0>        -0.0464 
      26 C18       -0.7800    0.7135    5.1876 C.2       1 <0>        -0.1782 
      27 C19       -2.1644    0.4767    4.7206 C.2       1 <0>        -0.2183 
      28 C20       -2.0923    0.6183    3.3943 C.2       1 <0>        -0.0240 
      29 O6        -0.8372    0.9102    2.8651 O.3       1 <0>        -0.1712 
      30 H1        -0.1104   -9.4066    9.8087 H         1 <0>         0.0628 
      31 H2        -1.4953   -9.4455   10.9216 H         1 <0>         0.0628 
      32 H3        -1.7092   -9.9121    9.2202 H         1 <0>         0.0640 
      33 H4        -0.9719   -7.1284   10.2123 H         1 <0>         0.0966 
      34 H5        -2.5795   -7.6307    9.6451 H         1 <0>         0.0966 
      35 H6        -1.7054   -5.5854    8.1406 H         1 <0>         0.4131 
      36 H7        -1.1717   -6.8869    5.5702 H         1 <0>         0.1171 
      37 H8        -1.3572   -5.1421    5.8506 H         1 <0>         0.1171 
      38 H9         2.9278   -4.6279    5.6359 H         1 <0>         0.1185 
      39 H10        2.9797   -6.0589    8.3242 H         1 <0>         0.0777 
      40 H11        2.9725   -6.8418    6.7290 H         1 <0>         0.0803 
      41 H12        4.3673   -5.8625    7.2318 H         1 <0>         0.0842 
      42 H13        1.8979   -2.2170    6.3917 H         1 <0>         0.4245 
      43 H14        3.7202   -2.2235    9.5710 H         1 <0>         0.1486 
      44 H15        4.3464   -0.1579   10.7956 H         1 <0>         0.1348 
      45 H16        3.9648    2.0671    9.7608 H         1 <0>         0.1332 
      46 H17        3.0516    2.2313    7.4681 H         1 <0>         0.1296 
      47 H18        2.2303    2.1238    5.7107 H         1 <0>         0.4054 
      48 H19        1.8453    0.4978    3.3145 H         1 <0>         0.1035 
      49 H20        1.4961    2.2326    3.4763 H         1 <0>         0.0890 
      50 H21       -0.4270    0.6963    6.2081 H         1 <0>         0.1520 
      51 H22       -3.0369    0.2485    5.3146 H         1 <0>         0.1526 
      52 H23       -2.9327    0.5120    2.7245 H         1 <0>         0.2068 
@<TRIPOS>BOND
       1        1        2 1        
       2        1       30 1        
       3        1       31 1        
       4        1       32 1        
       5        2        3 1        
       6        2       33 1        
       7        2       34 1        
       8        3        4 2        
       9        3        5 am       
      10        5        6 1        
      11        5       35 1        
      12        6        7 1        
      13        6       36 1        
      14        6       37 1        
      15        7        8 2        
      16        7        9 1        
      17        9       10 1        
      18       10       11 1        
      19       10       12 1        
      20       10       38 1        
      21       11       39 1        
      22       11       40 1        
      23       11       41 1        
      24       12       13 2        
      25       12       14 am       
      26       14       15 1        
      27       14       42 1        
      28       15       20 ar       
      29       15       16 ar       
      30       16       17 ar       
      31       16       43 1        
      32       17       18 ar       
      33       17       44 1        
      34       18       19 ar       
      35       18       45 1        
      36       19       20 ar       
      37       19       46 1        
      38       20       21 1        
      39       21       22 2        
      40       21       23 am       
      41       23       24 1        
      42       23       47 1        
      43       24       25 1        
      44       24       48 1        
      45       24       49 1        
      46       25       29 1        
      47       25       26 2        
      48       26       27 1        
      49       26       50 1        
      50       27       28 2        
      51       27       51 1        
      52       28       29 1        
      53       28       52 1        

