#        1GCZ_R01_S0001_C0000_L00017_S0001_C0005_G0010_E0001.mol2
#        Tue Jun  6 14:18:24 2017
#        Descriptor:     10     3    13     8     6    15
#        Energy - RMSD - RMSD MassCentre:     -71.5924    999.9999    999.9999
#        Receptor:       1  Surface Point:     1  Conformer:     0
#        Ligand:        17  Surface Point:     1  Conformer:     5
#        BUDE Formal Charge: 0
#        ATOM Count: 52
#        Heavy ATOM Count: 29
@<TRIPOS>MOLECULE
ZINC61282001_1GCZ_R01_S0001_C0000_L00017_S0001_C0005_G0010_E0001
 52 53 0 0 0
SMALL
USER_CHARGES
@<TRIPOS>ATOM
       1 C1        -1.6032   -8.1606   10.4119 C.3       1 <0>        -0.1391 
       2 C2        -2.0946   -6.9518    9.6209 C.3       1 <0>        -0.1418 
       3 C3        -1.2195   -6.7568    8.4058 C.2       1 <0>         0.5169 
       4 O1        -0.2813   -7.5230    8.1934 O.2       1 <0>        -0.5335 
       5 N1        -1.4634   -5.7556    7.5650 N.am      1 <0>        -0.7285 
       6 C4        -0.6117   -5.5658    6.3822 C.3       1 <0>         0.1288 
       7 C5         0.6987   -4.9433    6.8014 C.2       1 <0>         0.4630 
       8 O2         1.7175   -5.5562    6.6818 O.2       1 <0>        -0.4988 
       9 O3         0.7192   -3.6937    7.3115 O.3       1 <0>        -0.3175 
      10 C6         1.9835   -3.1462    7.6945 C.3       1 <0>         0.0731 
      11 C7         2.6134   -4.0236    8.7726 C.3       1 <0>        -0.1692 
      12 C8         1.7835   -1.7507    8.2358 C.2       1 <0>         0.5202 
      13 O4         2.1806   -1.4653    9.3643 O.2       1 <0>        -0.4963 
      14 N2         1.1775   -0.8299    7.4918 N.am      1 <0>        -0.6538 
      15 C9         0.9893    0.4781    7.9976 C.ar      1 <0>         0.2101 
      16 C10        1.0028    0.7337    9.3739 C.ar      1 <0>        -0.1321 
      17 C11        0.7625    2.0350    9.8310 C.ar      1 <0>        -0.0675 
      18 C12        0.5124    3.0686    8.9193 C.ar      1 <0>        -0.1401 
      19 C13        0.5354    2.8154    7.5427 C.ar      1 <0>        -0.0656 
      20 C14        0.7583    1.5122    7.0826 C.ar      1 <0>        -0.1718 
      21 C15        0.7543    1.1384    5.6506 C.2       1 <0>         0.5702 
      22 O5         0.9477   -0.0305    5.3199 O.2       1 <0>        -0.5422 
      23 N3         0.5417    2.0666    4.7220 N.am      1 <0>        -0.7214 
      24 C16        0.5378    1.6953    3.2997 C.3       1 <0>         0.2043 
      25 C17       -0.7401    0.9589    2.9762 C.2       1 <0>        -0.0464 
      26 C18       -1.7339    0.6830    3.8317 C.2       1 <0>        -0.1782 
      27 C19       -2.7150   -0.0384    2.9904 C.2       1 <0>        -0.2183 
      28 C20       -2.1535   -0.0624    1.7785 C.2       1 <0>        -0.0240 
      29 O6        -0.9008    0.5350    1.6591 O.3       1 <0>        -0.1712 
      30 H1        -0.5799   -7.9876   10.7389 H         1 <0>         0.0628 
      31 H2        -2.2417   -8.3090   11.2802 H         1 <0>         0.0628 
      32 H3        -1.6379   -9.0453    9.7798 H         1 <0>         0.0640 
      33 H4        -2.0471   -6.0636   10.2476 H         1 <0>         0.0966 
      34 H5        -3.1221   -7.1183    9.3041 H         1 <0>         0.0966 
      35 H6        -2.2337   -5.1256    7.7385 H         1 <0>         0.4131 
      36 H7        -0.4212   -6.5288    5.9132 H         1 <0>         0.1171 
      37 H8        -1.1138   -4.9099    5.6742 H         1 <0>         0.1171 
      38 H9         2.6402   -3.1076    6.8279 H         1 <0>         0.1185 
      39 H10        1.9501   -4.0713    9.6336 H         1 <0>         0.0777 
      40 H11        2.7697   -5.0253    8.3783 H         1 <0>         0.0803 
      41 H12        3.5686   -3.5983    9.0730 H         1 <0>         0.0842 
      42 H13        0.8514   -1.0643    6.5652 H         1 <0>         0.4245 
      43 H14        1.1909   -0.0661   10.0747 H         1 <0>         0.1486 
      44 H15        0.7616    2.2376   10.8918 H         1 <0>         0.1348 
      45 H16        0.3080    4.0675    9.2754 H         1 <0>         0.1332 
      46 H17        0.3798    3.6237    6.8434 H         1 <0>         0.1296 
      47 H18        0.3831    3.0261    4.9947 H         1 <0>         0.4054 
      48 H19        1.3904    1.0526    3.0909 H         1 <0>         0.1035 
      49 H20        0.6030    2.5945    2.6907 H         1 <0>         0.0890 
      50 H21       -1.8265    0.9162    4.8821 H         1 <0>         0.1520 
      51 H22       -3.6705   -0.4468    3.2844 H         1 <0>         0.1526 
      52 H23       -2.6032   -0.5175    0.9085 H         1 <0>         0.2068 
@<TRIPOS>BOND
       1        1        2 1        
       2        1       30 1        
       3        1       31 1        
       4        1       32 1        
       5        2        3 1        
       6        2       33 1        
       7        2       34 1        
       8        3        4 2        
       9        3        5 am       
      10        5        6 1        
      11        5       35 1        
      12        6        7 1        
      13        6       36 1        
      14        6       37 1        
      15        7        8 2        
      16        7        9 1        
      17        9       10 1        
      18       10       11 1        
      19       10       12 1        
      20       10       38 1        
      21       11       39 1        
      22       11       40 1        
      23       11       41 1        
      24       12       13 2        
      25       12       14 am       
      26       14       15 1        
      27       14       42 1        
      28       15       20 ar       
      29       15       16 ar       
      30       16       17 ar       
      31       16       43 1        
      32       17       18 ar       
      33       17       44 1        
      34       18       19 ar       
      35       18       45 1        
      36       19       20 ar       
      37       19       46 1        
      38       20       21 1        
      39       21       22 2        
      40       21       23 am       
      41       23       24 1        
      42       23       47 1        
      43       24       25 1        
      44       24       48 1        
      45       24       49 1        
      46       25       29 1        
      47       25       26 2        
      48       26       27 1        
      49       26       50 1        
      50       27       28 2        
      51       27       51 1        
      52       28       29 1        
      53       28       52 1        

