#        1GCZ_R01_S0001_C0000_L00017_S0001_C0006_G0010_E0001.mol2
#        Tue Jun  6 10:01:02 2017
#        Descriptor:     17     2     5     9     7    13
#        Energy - RMSD - RMSD MassCentre:     -81.3018    999.9999    999.9999
#        Receptor:       1  Surface Point:     1  Conformer:     0
#        Ligand:        17  Surface Point:     1  Conformer:     6
#        BUDE Formal Charge: 0
#        ATOM Count: 52
#        Heavy ATOM Count: 29
@<TRIPOS>MOLECULE
ZINC61282001_1GCZ_R01_S0001_C0000_L00017_S0001_C0006_G0010_E0001
 52 53 0 0 0
SMALL
USER_CHARGES
@<TRIPOS>ATOM
       1 C1        -2.3756   -0.3254    6.0837 C.3       1 <0>        -0.1391 
       2 C2        -1.9298   -0.1400    7.5313 C.3       1 <0>        -0.1418 
       3 C3        -1.1470   -1.3526    7.9751 C.2       1 <0>         0.5169 
       4 O1         0.0239   -1.2330    8.3322 O.2       1 <0>        -0.5335 
       5 N1        -1.7240   -2.5509    7.9799 N.am      1 <0>        -0.7285 
       6 C4        -0.9621   -3.7313    8.4120 C.3       1 <0>         0.1288 
       7 C5        -0.0170   -4.1498    7.3112 C.2       1 <0>         0.4630 
       8 O2        -0.1645   -5.2017    6.7638 O.2       1 <0>        -0.4988 
       9 O3         0.9952   -3.3350    6.9451 O.3       1 <0>        -0.3175 
      10 C6         1.8644   -3.7740    5.8980 C.3       1 <0>         0.0731 
      11 C7         2.5375   -5.0807    6.3084 C.3       1 <0>        -0.1692 
      12 C8         2.9190   -2.7229    5.6467 C.2       1 <0>         0.5202 
      13 O4         4.1111   -3.0172    5.7182 O.2       1 <0>        -0.4963 
      14 N2         2.5587   -1.4780    5.3480 N.am      1 <0>        -0.6538 
      15 C9         3.5457   -0.4919    5.1123 C.ar      1 <0>         0.2101 
      16 C10        4.8491   -0.6372    5.6019 C.ar      1 <0>        -0.1321 
      17 C11        5.7792    0.3870    5.3872 C.ar      1 <0>        -0.0675 
      18 C12        5.4077    1.5432    4.6891 C.ar      1 <0>        -0.1401 
      19 C13        4.1134    1.6683    4.1705 C.ar      1 <0>        -0.0656 
      20 C14        3.1759    0.6538    4.3980 C.ar      1 <0>        -0.1718 
      21 C15        1.7729    0.7169    3.9309 C.2       1 <0>         0.5702 
      22 O5         1.0011   -0.2087    4.1767 O.2       1 <0>        -0.5422 
      23 N3         1.3476    1.7744    3.2455 N.am      1 <0>        -0.7214 
      24 C16       -0.0458    1.8370    2.7815 C.3       1 <0>         0.2043 
      25 C17       -0.2285    0.9000    1.6117 C.2       1 <0>        -0.0464 
      26 C18       -0.3040    1.2501    0.3204 C.2       1 <0>        -0.1782 
      27 C19       -0.4772   -0.0461   -0.3728 C.2       1 <0>        -0.2183 
      28 C20       -0.4640   -0.9491    0.6115 C.2       1 <0>        -0.0240 
      29 O6        -0.3181   -0.4583    1.9069 O.3       1 <0>        -0.1712 
      30 H1        -3.0146   -1.2030    6.0113 H         1 <0>         0.0628 
      31 H2        -2.9283    0.5540    5.7596 H         1 <0>         0.0628 
      32 H3        -1.5015   -0.4593    5.4500 H         1 <0>         0.0640 
      33 H4        -2.8037   -0.0201    8.1681 H         1 <0>         0.0966 
      34 H5        -1.3008    0.7446    7.6072 H         1 <0>         0.0966 
      35 H6        -2.6855   -2.6503    7.6868 H         1 <0>         0.4131 
      36 H7        -0.3917   -3.4883    9.3059 H         1 <0>         0.1171 
      37 H8        -1.6483   -4.5471    8.6295 H         1 <0>         0.1171 
      38 H9         1.2874   -3.9323    4.9892 H         1 <0>         0.1185 
      39 H10        3.1040   -4.9240    7.2239 H         1 <0>         0.0777 
      40 H11        1.7784   -5.8415    6.4765 H         1 <0>         0.0803 
      41 H12        3.2091   -5.4061    5.5168 H         1 <0>         0.0842 
      42 H13        1.5799   -1.2363    5.2894 H         1 <0>         0.4245 
      43 H14        5.1314   -1.5274    6.1442 H         1 <0>         0.1486 
      44 H15        6.7838    0.2861    5.7707 H         1 <0>         0.1348 
      45 H16        6.1216    2.3400    4.5420 H         1 <0>         0.1332 
      46 H17        3.8438    2.5450    3.6002 H         1 <0>         0.1296 
      47 H18        1.9823    2.5339    3.0441 H         1 <0>         0.4054 
      48 H19       -0.2792    2.8538    2.4727 H         1 <0>         0.1035 
      49 H20       -0.7104    1.5417    3.5907 H         1 <0>         0.0890 
      50 H21       -0.2539    2.2283   -0.1346 H         1 <0>         0.1520 
      51 H22       -0.5829   -0.2249   -1.4326 H         1 <0>         0.1526 
      52 H23       -0.5675   -2.0137    0.4619 H         1 <0>         0.2068 
@<TRIPOS>BOND
       1        1        2 1        
       2        1       30 1        
       3        1       31 1        
       4        1       32 1        
       5        2        3 1        
       6        2       33 1        
       7        2       34 1        
       8        3        4 2        
       9        3        5 am       
      10        5        6 1        
      11        5       35 1        
      12        6        7 1        
      13        6       36 1        
      14        6       37 1        
      15        7        8 2        
      16        7        9 1        
      17        9       10 1        
      18       10       11 1        
      19       10       12 1        
      20       10       38 1        
      21       11       39 1        
      22       11       40 1        
      23       11       41 1        
      24       12       13 2        
      25       12       14 am       
      26       14       15 1        
      27       14       42 1        
      28       15       20 ar       
      29       15       16 ar       
      30       16       17 ar       
      31       16       43 1        
      32       17       18 ar       
      33       17       44 1        
      34       18       19 ar       
      35       18       45 1        
      36       19       20 ar       
      37       19       46 1        
      38       20       21 1        
      39       21       22 2        
      40       21       23 am       
      41       23       24 1        
      42       23       47 1        
      43       24       25 1        
      44       24       48 1        
      45       24       49 1        
      46       25       29 1        
      47       25       26 2        
      48       26       27 1        
      49       26       50 1        
      50       27       28 2        
      51       27       51 1        
      52       28       29 1        
      53       28       52 1        

