#        1GCZ_R01_S0001_C0000_L00017_S0001_C0006_G0010_E0001.mol2
#        Tue Jun  6 14:18:26 2017
#        Descriptor:     16     2     6     9     7    13
#        Energy - RMSD - RMSD MassCentre:     -80.7738    999.9999    999.9999
#        Receptor:       1  Surface Point:     1  Conformer:     0
#        Ligand:        17  Surface Point:     1  Conformer:     6
#        BUDE Formal Charge: 0
#        ATOM Count: 52
#        Heavy ATOM Count: 29
@<TRIPOS>MOLECULE
ZINC61282001_1GCZ_R01_S0001_C0000_L00017_S0001_C0006_G0010_E0001
 52 53 0 0 0
SMALL
USER_CHARGES
@<TRIPOS>ATOM
       1 C1        -2.5461   -0.6448    5.5684 C.3       1 <0>        -0.1391 
       2 C2        -2.3281   -0.2837    7.0349 C.3       1 <0>        -0.1418 
       3 C3        -1.4889   -1.3511    7.6958 C.2       1 <0>         0.5169 
       4 O1        -0.3987   -1.0616    8.1860 O.2       1 <0>        -0.5335 
       5 N1        -1.9290   -2.6050    7.7477 N.am      1 <0>        -0.7285 
       6 C4        -1.1122   -3.6441    8.3911 C.3       1 <0>         0.1288 
       7 C5         0.0161   -4.0390    7.4684 C.2       1 <0>         0.4630 
       8 O2         0.0598   -5.1441    7.0159 O.2       1 <0>        -0.4988 
       9 O3         0.9759   -3.1431    7.1546 O.3       1 <0>        -0.3175 
      10 C6         2.0242   -3.5629    6.2773 C.3       1 <0>         0.0731 
      11 C7         2.7701   -4.7393    6.9006 C.3       1 <0>        -0.1692 
      12 C8         2.9844   -2.4183    6.0581 C.2       1 <0>         0.5202 
      13 O4         4.1797   -2.5602    6.3112 O.2       1 <0>        -0.4963 
      14 N2         2.5375   -1.2559    5.5914 N.am      1 <0>        -0.6538 
      15 C9         3.4360   -0.1824    5.3857 C.ar      1 <0>         0.2101 
      16 C10        4.6668   -0.1276    6.0503 C.ar      1 <0>        -0.1321 
      17 C11        5.5023    0.9785    5.8541 C.ar      1 <0>        -0.0675 
      18 C12        5.1093    2.0175    5.0009 C.ar      1 <0>        -0.1401 
      19 C13        3.8937    1.9415    4.3107 C.ar      1 <0>        -0.0656 
      20 C14        3.0482    0.8451    4.5176 C.ar      1 <0>        -0.1718 
      21 C15        1.7250    0.6991    3.8706 C.2       1 <0>         0.5702 
      22 O5         1.0305   -0.2879    4.1079 O.2       1 <0>        -0.5422 
      23 N3         1.2879    1.6352    3.0330 N.am      1 <0>        -0.7214 
      24 C16       -0.0262    1.4901    2.3903 C.3       1 <0>         0.2043 
      25 C17        0.0571    0.4411    1.3075 C.2       1 <0>        -0.0464 
      26 C18        0.1245    0.6674   -0.0115 C.2       1 <0>        -0.1782 
      27 C19        0.1894   -0.6948   -0.5865 C.2       1 <0>        -0.2183 
      28 C20        0.1627   -1.5019    0.4777 C.2       1 <0>        -0.0240 
      29 O6         0.0738   -0.8878    1.7247 O.3       1 <0>        -0.1712 
      30 H1        -3.0709   -1.5957    5.5038 H         1 <0>         0.0628 
      31 H2        -3.1396    0.1308    5.0889 H         1 <0>         0.0628 
      32 H3        -1.5832   -0.7267    5.0687 H         1 <0>         0.0640 
      33 H4        -3.2898   -0.2154    7.5391 H         1 <0>         0.0966 
      34 H5        -1.8145    0.6732    7.1009 H         1 <0>         0.0966 
      35 H6        -2.8242   -2.8439    7.3454 H         1 <0>         0.4131 
      36 H7        -0.7009   -3.2585    9.3215 H         1 <0>         0.1171 
      37 H8        -1.7303   -4.5145    8.6003 H         1 <0>         0.1171 
      38 H9         1.5993   -3.8667    5.3228 H         1 <0>         0.1185 
      39 H10        3.1839   -4.4378    7.8606 H         1 <0>         0.0777 
      40 H11        2.0812   -5.5684    7.0461 H         1 <0>         0.0803 
      41 H12        3.5762   -5.0485    6.2386 H         1 <0>         0.0842 
      42 H13        1.5561   -1.1393    5.3837 H         1 <0>         0.4245 
      43 H14        4.9650   -0.9278    6.7115 H         1 <0>         0.1486 
      44 H15        6.4488    1.0322    6.3714 H         1 <0>         0.1348 
      45 H16        5.7470    2.8787    4.8665 H         1 <0>         0.1332 
      46 H17        3.6134    2.7273    3.6248 H         1 <0>         0.1296 
      47 H18        1.8592    2.4452    2.8388 H         1 <0>         0.4054 
      48 H19       -0.3222    2.4413    1.9529 H         1 <0>         0.1035 
      49 H20       -0.7611    1.1877    3.1333 H         1 <0>         0.0890 
      50 H21        0.1319    1.6019   -0.5529 H         1 <0>         0.1520 
      51 H22        0.2517   -0.9753   -1.6275 H         1 <0>         0.1526 
      52 H23        0.1959   -2.5801    0.4245 H         1 <0>         0.2068 
@<TRIPOS>BOND
       1        1        2 1        
       2        1       30 1        
       3        1       31 1        
       4        1       32 1        
       5        2        3 1        
       6        2       33 1        
       7        2       34 1        
       8        3        4 2        
       9        3        5 am       
      10        5        6 1        
      11        5       35 1        
      12        6        7 1        
      13        6       36 1        
      14        6       37 1        
      15        7        8 2        
      16        7        9 1        
      17        9       10 1        
      18       10       11 1        
      19       10       12 1        
      20       10       38 1        
      21       11       39 1        
      22       11       40 1        
      23       11       41 1        
      24       12       13 2        
      25       12       14 am       
      26       14       15 1        
      27       14       42 1        
      28       15       20 ar       
      29       15       16 ar       
      30       16       17 ar       
      31       16       43 1        
      32       17       18 ar       
      33       17       44 1        
      34       18       19 ar       
      35       18       45 1        
      36       19       20 ar       
      37       19       46 1        
      38       20       21 1        
      39       21       22 2        
      40       21       23 am       
      41       23       24 1        
      42       23       47 1        
      43       24       25 1        
      44       24       48 1        
      45       24       49 1        
      46       25       29 1        
      47       25       26 2        
      48       26       27 1        
      49       26       50 1        
      50       27       28 2        
      51       27       51 1        
      52       28       29 1        
      53       28       52 1        

