#        1GCZ_R01_S0001_C0000_L00017_S0001_C0007_G0010_E0001.mol2
#        Tue Jun  6 10:01:03 2017
#        Descriptor:     13     1    10     9     7    15
#        Energy - RMSD - RMSD MassCentre:     -64.6640    999.9999    999.9999
#        Receptor:       1  Surface Point:     1  Conformer:     0
#        Ligand:        17  Surface Point:     1  Conformer:     7
#        BUDE Formal Charge: 0
#        ATOM Count: 52
#        Heavy ATOM Count: 29
@<TRIPOS>MOLECULE
ZINC61282001_1GCZ_R01_S0001_C0000_L00017_S0001_C0007_G0010_E0001
 52 53 0 0 0
SMALL
USER_CHARGES
@<TRIPOS>ATOM
       1 C1        -0.7693   -6.1792    6.3095 C.3       1 <0>        -0.1391 
       2 C2        -0.5821   -5.3944    7.6048 C.3       1 <0>        -0.1418 
       3 C3        -1.3217   -4.0815    7.5082 C.2       1 <0>         0.5169 
       4 O1        -1.9459   -3.8000    6.4863 O.2       1 <0>        -0.5335 
       5 N1        -1.2982   -3.2288    8.5286 N.am      1 <0>        -0.7285 
       6 C4        -0.5522   -3.5651    9.7497 C.3       1 <0>         0.1288 
       7 C5         0.9252   -3.3710    9.5053 C.2       1 <0>         0.4630 
       8 O2         1.6636   -4.3103    9.5267 O.2       1 <0>        -0.4988 
       9 O3         1.4122   -2.1356    9.2625 O.3       1 <0>        -0.3175 
      10 C6         2.8179   -2.0011    9.0370 C.3       1 <0>         0.0731 
      11 C7         3.5803   -2.4924   10.2642 C.3       1 <0>        -0.1692 
      12 C8         3.1500   -0.5494    8.7869 C.2       1 <0>         0.5202 
      13 O4         3.9838    0.0211    9.4884 O.2       1 <0>        -0.4963 
      14 N2         2.5405    0.1126    7.8077 N.am      1 <0>        -0.6538 
      15 C9         2.8505    1.4730    7.5722 C.ar      1 <0>         0.2101 
      16 C10        3.4209    2.2714    8.5706 C.ar      1 <0>        -0.1321 
      17 C11        3.6647    3.6250    8.3088 C.ar      1 <0>        -0.0675 
      18 C12        3.3413    4.1720    7.0605 C.ar      1 <0>        -0.1401 
      19 C13        2.8042    3.3615    6.0534 C.ar      1 <0>        -0.0656 
      20 C14        2.5433    2.0117    6.3172 C.ar      1 <0>        -0.1718 
      21 C15        1.9344    1.0888    5.3332 C.2       1 <0>         0.5702 
      22 O5         1.7243   -0.0839    5.6388 O.2       1 <0>        -0.5422 
      23 N3         1.6149    1.5281    4.1192 N.am      1 <0>        -0.7214 
      24 C16        1.0103    0.6115    3.1420 C.3       1 <0>         0.2043 
      25 C17       -0.4289    0.3532    3.5191 C.2       1 <0>        -0.0464 
      26 C18       -1.0784    0.8733    4.5693 C.2       1 <0>        -0.1782 
      27 C19       -2.4341    0.2913    4.4518 C.2       1 <0>        -0.2183 
      28 C20       -2.3728   -0.4645    3.3520 C.2       1 <0>        -0.0240 
      29 O6        -1.1489   -0.5016    2.6878 O.3       1 <0>        -0.1712 
      30 H1        -0.3641   -5.6069    5.4776 H         1 <0>         0.0628 
      31 H2        -0.2474   -7.1310    6.3843 H         1 <0>         0.0628 
      32 H3        -1.8298   -6.3582    6.1449 H         1 <0>         0.0640 
      33 H4         0.4770   -5.2024    7.7634 H         1 <0>         0.0966 
      34 H5        -0.9758   -5.9712    8.4392 H         1 <0>         0.0966 
      35 H6        -1.7925   -2.3503    8.4651 H         1 <0>         0.4131 
      36 H7        -0.8731   -2.9162   10.5618 H         1 <0>         0.1171 
      37 H8        -0.7417   -4.6025   10.0171 H         1 <0>         0.1171 
      38 H9         3.1050   -2.5926    8.1701 H         1 <0>         0.1185 
      39 H10        3.2832   -1.9083   11.1327 H         1 <0>         0.0777 
      40 H11        3.3513   -3.5418   10.4365 H         1 <0>         0.0803 
      41 H12        4.6490   -2.3764   10.0969 H         1 <0>         0.0842 
      42 H13        1.8558   -0.3559    7.2318 H         1 <0>         0.4245 
      43 H14        3.6646    1.8482    9.5338 H         1 <0>         0.1486 
      44 H15        4.0953    4.2492    9.0777 H         1 <0>         0.1348 
      45 H16        3.5123    5.2208    6.8680 H         1 <0>         0.1332 
      46 H17        2.5925    3.7801    5.0805 H         1 <0>         0.1296 
      47 H18        1.7880    2.4914    3.8694 H         1 <0>         0.4054 
      48 H19        1.5593   -0.3278    3.1387 H         1 <0>         0.1035 
      49 H20        1.0514    1.0597    2.1515 H         1 <0>         0.0890 
      50 H21       -0.7274    1.5530    5.3317 H         1 <0>         0.1520 
      51 H22       -3.2831    0.4460    5.1010 H         1 <0>         0.1526 
      52 H23       -3.1985   -1.0423    2.9640 H         1 <0>         0.2068 
@<TRIPOS>BOND
       1        1        2 1        
       2        1       30 1        
       3        1       31 1        
       4        1       32 1        
       5        2        3 1        
       6        2       33 1        
       7        2       34 1        
       8        3        4 2        
       9        3        5 am       
      10        5        6 1        
      11        5       35 1        
      12        6        7 1        
      13        6       36 1        
      14        6       37 1        
      15        7        8 2        
      16        7        9 1        
      17        9       10 1        
      18       10       11 1        
      19       10       12 1        
      20       10       38 1        
      21       11       39 1        
      22       11       40 1        
      23       11       41 1        
      24       12       13 2        
      25       12       14 am       
      26       14       15 1        
      27       14       42 1        
      28       15       20 ar       
      29       15       16 ar       
      30       16       17 ar       
      31       16       43 1        
      32       17       18 ar       
      33       17       44 1        
      34       18       19 ar       
      35       18       45 1        
      36       19       20 ar       
      37       19       46 1        
      38       20       21 1        
      39       21       22 2        
      40       21       23 am       
      41       23       24 1        
      42       23       47 1        
      43       24       25 1        
      44       24       48 1        
      45       24       49 1        
      46       25       29 1        
      47       25       26 2        
      48       26       27 1        
      49       26       50 1        
      50       27       28 2        
      51       27       51 1        
      52       28       29 1        
      53       28       52 1        

