#        1GCZ_R01_S0001_C0000_L00017_S0001_C0007_G0010_E0001.mol2
#        Tue Jun  6 14:18:28 2017
#        Descriptor:     36    34    12    15     7    13
#        Energy - RMSD - RMSD MassCentre:     -64.0400    999.9999    999.9999
#        Receptor:       1  Surface Point:     1  Conformer:     0
#        Ligand:        17  Surface Point:     1  Conformer:     7
#        BUDE Formal Charge: 0
#        ATOM Count: 52
#        Heavy ATOM Count: 29
@<TRIPOS>MOLECULE
ZINC61282001_1GCZ_R01_S0001_C0000_L00017_S0001_C0007_G0010_E0001
 52 53 0 0 0
SMALL
USER_CHARGES
@<TRIPOS>ATOM
       1 C1        11.0066   -4.7768    4.6618 C.3       1 <0>        -0.1391 
       2 C2         9.7029   -4.6884    3.8735 C.3       1 <0>        -0.1418 
       3 C3         9.5865   -3.3196    3.2468 C.2       1 <0>         0.5169 
       4 O1        10.4746   -2.4860    3.4186 O.2       1 <0>        -0.5335 
       5 N1         8.5229   -3.0148    2.5087 N.am      1 <0>        -0.7285 
       6 C4         7.4616   -4.0108    2.3034 C.3       1 <0>         0.1288 
       7 C5         6.6150   -4.1070    3.5501 C.2       1 <0>         0.4630 
       8 O2         6.5998   -5.1183    4.1864 O.2       1 <0>        -0.4988 
       9 O3         5.8749   -3.0498    3.9461 O.3       1 <0>        -0.3175 
      10 C6         5.0891   -3.1879    5.1328 C.3       1 <0>         0.0731 
      11 C7         4.0882   -4.3256    4.9519 C.3       1 <0>        -0.1692 
      12 C8         4.3446   -1.9006    5.3951 C.2       1 <0>         0.5202 
      13 O4         3.1193   -1.9087    5.5018 O.2       1 <0>        -0.4963 
      14 N2         5.0141   -0.7573    5.5106 N.am      1 <0>        -0.6538 
      15 C9         4.3179    0.4497    5.7562 C.ar      1 <0>         0.2101 
      16 C10        2.9586    0.5801    5.4479 C.ar      1 <0>        -0.1321 
      17 C11        2.3228    1.8089    5.6618 C.ar      1 <0>        -0.0675 
      18 C12        3.0407    2.8945    6.1796 C.ar      1 <0>        -0.1401 
      19 C13        4.3908    2.7491    6.5200 C.ar      1 <0>        -0.0656 
      20 C14        5.0340    1.5269    6.2915 C.ar      1 <0>        -0.1718 
      21 C15        6.4676    1.2917    6.5745 C.2       1 <0>         0.5702 
      22 O5         6.9685    0.1934    6.3385 O.2       1 <0>        -0.5422 
      23 N3         7.2134    2.2680    7.0840 N.am      1 <0>        -0.7214 
      24 C16        8.6372    2.0343    7.3651 C.3       1 <0>         0.2043 
      25 C17        9.4080    2.0088    6.0669 C.2       1 <0>        -0.0464 
      26 C18        8.8984    2.1792    4.8394 C.2       1 <0>        -0.1782 
      27 C19       10.0836    2.0603    3.9608 C.2       1 <0>        -0.2183 
      28 C20       11.0982    1.8525    4.8044 C.2       1 <0>        -0.0240 
      29 O6        10.7814    1.7960    6.1597 O.3       1 <0>        -0.1712 
      30 H1        11.0043   -4.0273    5.4504 H         1 <0>         0.0628 
      31 H2        11.0968   -5.7676    5.1023 H         1 <0>         0.0628 
      32 H3        11.8464   -4.5984    3.9935 H         1 <0>         0.0640 
      33 H4         8.8615   -4.8526    4.5433 H         1 <0>         0.0966 
      34 H5         9.6988   -5.4458    3.0923 H         1 <0>         0.0966 
      35 H6         8.4440   -2.0995    2.0890 H         1 <0>         0.4131 
      36 H7         6.8378   -3.7095    1.4646 H         1 <0>         0.1171 
      37 H8         7.9087   -4.9803    2.0938 H         1 <0>         0.1171 
      38 H9         5.7404   -3.4077    5.9762 H         1 <0>         0.1185 
      39 H10        3.4456   -4.1105    4.1006 H         1 <0>         0.0777 
      40 H11        4.6250   -5.2553    4.7762 H         1 <0>         0.0803 
      41 H12        3.4816   -4.4204    5.8500 H         1 <0>         0.0842 
      42 H13        6.0202   -0.7507    5.4229 H         1 <0>         0.4245 
      43 H14        2.4089   -0.2572    5.0440 H         1 <0>         0.1486 
      44 H15        1.2768    1.9196    5.4168 H         1 <0>         0.1348 
      45 H16        2.5525    3.8468    6.3252 H         1 <0>         0.1332 
      46 H17        4.9293    3.5784    6.9546 H         1 <0>         0.1296 
      47 H18        6.8010    3.1695    7.2775 H         1 <0>         0.4054 
      48 H19        8.7537    1.0807    7.8757 H         1 <0>         0.1035 
      49 H20        9.0173    2.8338    7.9976 H         1 <0>         0.0890 
      50 H21        7.8788    2.3607    4.5333 H         1 <0>         0.1520 
      51 H22       10.1233    2.1321    2.8840 H         1 <0>         0.1526 
      52 H23       12.1256    1.7195    4.4994 H         1 <0>         0.2068 
@<TRIPOS>BOND
       1        1        2 1        
       2        1       30 1        
       3        1       31 1        
       4        1       32 1        
       5        2        3 1        
       6        2       33 1        
       7        2       34 1        
       8        3        4 2        
       9        3        5 am       
      10        5        6 1        
      11        5       35 1        
      12        6        7 1        
      13        6       36 1        
      14        6       37 1        
      15        7        8 2        
      16        7        9 1        
      17        9       10 1        
      18       10       11 1        
      19       10       12 1        
      20       10       38 1        
      21       11       39 1        
      22       11       40 1        
      23       11       41 1        
      24       12       13 2        
      25       12       14 am       
      26       14       15 1        
      27       14       42 1        
      28       15       20 ar       
      29       15       16 ar       
      30       16       17 ar       
      31       16       43 1        
      32       17       18 ar       
      33       17       44 1        
      34       18       19 ar       
      35       18       45 1        
      36       19       20 ar       
      37       19       46 1        
      38       20       21 1        
      39       21       22 2        
      40       21       23 am       
      41       23       24 1        
      42       23       47 1        
      43       24       25 1        
      44       24       48 1        
      45       24       49 1        
      46       25       29 1        
      47       25       26 2        
      48       26       27 1        
      49       26       50 1        
      50       27       28 2        
      51       27       51 1        
      52       28       29 1        
      53       28       52 1        

