#        1GCZ_R01_S0001_C0000_L00017_S0001_C0008_G0010_E0001.mol2
#        Tue Jun  6 10:01:04 2017
#        Descriptor:     21     4    35    10    10    12
#        Energy - RMSD - RMSD MassCentre:     -82.1006    999.9999    999.9999
#        Receptor:       1  Surface Point:     1  Conformer:     0
#        Ligand:        17  Surface Point:     1  Conformer:     8
#        BUDE Formal Charge: 0
#        ATOM Count: 52
#        Heavy ATOM Count: 29
@<TRIPOS>MOLECULE
ZINC61282001_1GCZ_R01_S0001_C0000_L00017_S0001_C0008_G0010_E0001
 52 53 0 0 0
SMALL
USER_CHARGES
@<TRIPOS>ATOM
       1 C1         1.2575    0.4064   -1.5495 C.3       1 <0>        -0.1391 
       2 C2        -0.2126    0.7438   -1.7811 C.3       1 <0>        -0.1418 
       3 C3        -0.9139    0.8741   -0.4500 C.2       1 <0>         0.5169 
       4 O1        -1.8510    0.1276   -0.1721 O.2       1 <0>        -0.5335 
       5 N1        -0.5179    1.7968    0.4222 N.am      1 <0>        -0.7285 
       6 C4        -1.2006    1.9236    1.7178 C.3       1 <0>         0.1288 
       7 C5        -0.7503    0.8111    2.6340 C.2       1 <0>         0.4630 
       8 O2        -1.5296   -0.0202    2.9938 O.2       1 <0>        -0.4988 
       9 O3         0.5338    0.7554    3.0469 O.3       1 <0>        -0.3175 
      10 C6         0.9137   -0.3164    3.9139 C.3       1 <0>         0.0731 
      11 C7         0.0888   -0.2516    5.1960 C.3       1 <0>        -0.1692 
      12 C8         2.3800   -0.1926    4.2531 C.2       1 <0>         0.5202 
      13 O4         3.1539   -1.1097    3.9835 O.2       1 <0>        -0.4963 
      14 N2         2.8347    0.9088    4.8439 N.am      1 <0>        -0.6538 
      15 C9         4.2083    1.0263    5.1625 C.ar      1 <0>         0.2101 
      16 C10        5.1689    0.2159    4.5459 C.ar      1 <0>        -0.1321 
      17 C11        6.5106    0.3326    4.9286 C.ar      1 <0>        -0.0675 
      18 C12        6.8854    1.2513    5.9173 C.ar      1 <0>        -0.1401 
      19 C13        5.9265    2.0844    6.5055 C.ar      1 <0>        -0.0656 
      20 C14        4.5818    1.9587    6.1376 C.ar      1 <0>        -0.1718 
      21 C15        3.4915    2.7609    6.7364 C.2       1 <0>         0.5702 
      22 O5         2.3297    2.5888    6.3707 O.2       1 <0>        -0.5422 
      23 N3         3.7686    3.6672    7.6695 N.am      1 <0>        -0.7214 
      24 C16        2.6858    4.4638    8.2643 C.3       1 <0>         0.2043 
      25 C17        2.2238    5.5038    7.2719 C.2       1 <0>        -0.0464 
      26 C18        2.7034    5.6860    6.0340 C.2       1 <0>        -0.1782 
      27 C19        1.8985    6.8175    5.5217 C.2       1 <0>        -0.2183 
      28 C20        1.0699    7.1127    6.5270 C.2       1 <0>        -0.0240 
      29 O6         1.1946    6.3472    7.6840 O.3       1 <0>        -0.1712 
      30 H1         1.3324   -0.5399   -1.0177 H         1 <0>         0.0628 
      31 H2         1.7657    0.3256   -2.5080 H         1 <0>         0.0628 
      32 H3         1.7207    1.1933   -0.9578 H         1 <0>         0.0640 
      33 H4        -0.6805   -0.0492   -2.3606 H         1 <0>         0.0966 
      34 H5        -0.2885    1.6838   -2.3237 H         1 <0>         0.0966 
      35 H6         0.2514    2.4104    0.1949 H         1 <0>         0.4131 
      36 H7        -0.9541    2.8839    2.1659 H         1 <0>         0.1171 
      37 H8        -2.2765    1.8575    1.5697 H         1 <0>         0.1171 
      38 H9         0.7365   -1.2672    3.4155 H         1 <0>         0.1185 
      39 H10        0.2573    0.7045    5.6870 H         1 <0>         0.0777 
      40 H11       -0.9667   -0.3542    4.9529 H         1 <0>         0.0803 
      41 H12        0.3886   -1.0591    5.8607 H         1 <0>         0.0842 
      42 H13        2.1992    1.6618    5.0653 H         1 <0>         0.4245 
      43 H14        4.8763   -0.4951    3.7874 H         1 <0>         0.1486 
      44 H15        7.2557   -0.2964    4.4642 H         1 <0>         0.1348 
      45 H16        7.9182    1.3252    6.2245 H         1 <0>         0.1332 
      46 H17        6.2271    2.8173    7.2396 H         1 <0>         0.1296 
      47 H18        4.7229    3.8076    7.9690 H         1 <0>         0.4054 
      48 H19        3.0504    4.9561    9.1634 H         1 <0>         0.1035 
      49 H20        1.8542    3.8106    8.5197 H         1 <0>         0.0890 
      50 H21        3.4840    5.1547    5.5100 H         1 <0>         0.1520 
      51 H22        1.9597    7.2932    4.5540 H         1 <0>         0.1526 
      52 H23        0.3319    7.9005    6.4958 H         1 <0>         0.2068 
@<TRIPOS>BOND
       1        1        2 1        
       2        1       30 1        
       3        1       31 1        
       4        1       32 1        
       5        2        3 1        
       6        2       33 1        
       7        2       34 1        
       8        3        4 2        
       9        3        5 am       
      10        5        6 1        
      11        5       35 1        
      12        6        7 1        
      13        6       36 1        
      14        6       37 1        
      15        7        8 2        
      16        7        9 1        
      17        9       10 1        
      18       10       11 1        
      19       10       12 1        
      20       10       38 1        
      21       11       39 1        
      22       11       40 1        
      23       11       41 1        
      24       12       13 2        
      25       12       14 am       
      26       14       15 1        
      27       14       42 1        
      28       15       20 ar       
      29       15       16 ar       
      30       16       17 ar       
      31       16       43 1        
      32       17       18 ar       
      33       17       44 1        
      34       18       19 ar       
      35       18       45 1        
      36       19       20 ar       
      37       19       46 1        
      38       20       21 1        
      39       21       22 2        
      40       21       23 am       
      41       23       24 1        
      42       23       47 1        
      43       24       25 1        
      44       24       48 1        
      45       24       49 1        
      46       25       29 1        
      47       25       26 2        
      48       26       27 1        
      49       26       50 1        
      50       27       28 2        
      51       27       51 1        
      52       28       29 1        
      53       28       52 1        

