#        1GCZ_R01_S0001_C0000_L00017_S0001_C0008_G0010_E0001.mol2
#        Tue Jun  6 14:18:30 2017
#        Descriptor:     21     2    35    11     9    13
#        Energy - RMSD - RMSD MassCentre:     -83.8850    999.9999    999.9999
#        Receptor:       1  Surface Point:     1  Conformer:     0
#        Ligand:        17  Surface Point:     1  Conformer:     8
#        BUDE Formal Charge: 0
#        ATOM Count: 52
#        Heavy ATOM Count: 29
@<TRIPOS>MOLECULE
ZINC61282001_1GCZ_R01_S0001_C0000_L00017_S0001_C0008_G0010_E0001
 52 53 0 0 0
SMALL
USER_CHARGES
@<TRIPOS>ATOM
       1 C1         0.4153   -0.2688   -0.0593 C.3       1 <0>        -0.1391 
       2 C2        -1.0434    0.0666    0.2382 C.3       1 <0>        -0.1418 
       3 C3        -1.2539    0.1103    1.7329 C.2       1 <0>         0.5169 
       4 O1        -2.0503   -0.6610    2.2654 O.2       1 <0>        -0.5335 
       5 N1        -0.5779    0.9837    2.4740 N.am      1 <0>        -0.7285 
       6 C4        -0.7829    1.0263    3.9290 C.3       1 <0>         0.1288 
       7 C5        -0.0618   -0.1339    4.5722 C.2       1 <0>         0.4630 
       8 O2        -0.6829   -0.9931    5.1234 O.2       1 <0>        -0.4988 
       9 O3         1.2857   -0.2008    4.5243 O.3       1 <0>        -0.3175 
      10 C6         1.9244   -1.3183    5.1474 C.3       1 <0>         0.0731 
      11 C7         1.5802   -1.3383    6.6339 C.3       1 <0>        -0.1692 
      12 C8         3.4204   -1.1997    4.9796 C.2       1 <0>         0.5202 
      13 O4         4.0488   -2.0911    4.4112 O.2       1 <0>        -0.4963 
      14 N2         4.0589   -0.1307    5.4470 N.am      1 <0>        -0.6538 
      15 C9         5.4606   -0.0182    5.2907 C.ar      1 <0>         0.2101 
      16 C10        6.1491   -0.7806    4.3397 C.ar      1 <0>        -0.1321 
      17 C11        7.5423   -0.6730    4.2543 C.ar      1 <0>        -0.0675 
      18 C12        8.2378    0.1892    5.1116 C.ar      1 <0>        -0.1401 
      19 C13        7.5417    0.9760    6.0369 C.ar      1 <0>        -0.0656 
      20 C14        6.1503    0.8585    6.1366 C.ar      1 <0>        -0.1718 
      21 C15        5.3338    1.6123    7.1142 C.2       1 <0>         0.5702 
      22 O5         4.1150    1.4503    7.1517 O.2       1 <0>        -0.5422 
      23 N3         5.9183    2.4644    7.9515 N.am      1 <0>        -0.7214 
      24 C16        5.1074    3.2131    8.9225 C.3       1 <0>         0.2043 
      25 C17        4.3489    4.3055    8.2073 C.2       1 <0>        -0.0464 
      26 C18        4.3854    4.5657    6.8933 C.2       1 <0>        -0.1782 
      27 C19        3.4666    5.7174    6.7502 C.2       1 <0>        -0.2183 
      28 C20        3.0281    5.9437    7.9915 C.2       1 <0>        -0.0240 
      29 O6         3.5274    5.1122    8.9913 O.3       1 <0>        -0.1712 
      30 H1         0.6552   -1.2441    0.3590 H         1 <0>         0.0628 
      31 H2         0.5701   -0.2873   -1.1361 H         1 <0>         0.0628 
      32 H3         1.0588    0.4863    0.3874 H         1 <0>         0.0640 
      33 H4        -1.6872   -0.6953   -0.1959 H         1 <0>         0.0966 
      34 H5        -1.2879    1.0363   -0.1903 H         1 <0>         0.0966 
      35 H6         0.0763    1.6177    2.0377 H         1 <0>         0.4131 
      36 H7        -0.3900    1.9607    4.3240 H         1 <0>         0.1171 
      37 H8        -1.8464    0.9580    4.1482 H         1 <0>         0.1171 
      38 H9         1.5798   -2.2395    4.6822 H         1 <0>         0.1185 
      39 H10        1.9141   -0.4113    7.0954 H         1 <0>         0.0777 
      40 H11        0.5035   -1.4371    6.7549 H         1 <0>         0.0803 
      41 H12        2.0780   -2.1807    7.1095 H         1 <0>         0.0842 
      42 H13        3.5428    0.6012    5.9139 H         1 <0>         0.4245 
      43 H14        5.6108   -1.4483    3.6832 H         1 <0>         0.1486 
      44 H15        8.0810   -1.2656    3.5296 H         1 <0>         0.1348 
      45 H16        9.3144    0.2554    5.0569 H         1 <0>         0.1332 
      46 H17        8.0795    1.6670    6.6690 H         1 <0>         0.1296 
      47 H18        6.9192    2.5967    7.9199 H         1 <0>         0.4054 
      48 H19        5.7586    3.6549    9.6738 H         1 <0>         0.1035 
      49 H20        4.4037    2.5374    9.4037 H         1 <0>         0.0890 
      50 H21        4.9383    4.0746    6.1064 H         1 <0>         0.1520 
      51 H22        3.2033    6.2502    5.8485 H         1 <0>         0.1526 
      52 H23        2.3309    6.7243    8.2576 H         1 <0>         0.2068 
@<TRIPOS>BOND
       1        1        2 1        
       2        1       30 1        
       3        1       31 1        
       4        1       32 1        
       5        2        3 1        
       6        2       33 1        
       7        2       34 1        
       8        3        4 2        
       9        3        5 am       
      10        5        6 1        
      11        5       35 1        
      12        6        7 1        
      13        6       36 1        
      14        6       37 1        
      15        7        8 2        
      16        7        9 1        
      17        9       10 1        
      18       10       11 1        
      19       10       12 1        
      20       10       38 1        
      21       11       39 1        
      22       11       40 1        
      23       11       41 1        
      24       12       13 2        
      25       12       14 am       
      26       14       15 1        
      27       14       42 1        
      28       15       20 ar       
      29       15       16 ar       
      30       16       17 ar       
      31       16       43 1        
      32       17       18 ar       
      33       17       44 1        
      34       18       19 ar       
      35       18       45 1        
      36       19       20 ar       
      37       19       46 1        
      38       20       21 1        
      39       21       22 2        
      40       21       23 am       
      41       23       24 1        
      42       23       47 1        
      43       24       25 1        
      44       24       48 1        
      45       24       49 1        
      46       25       29 1        
      47       25       26 2        
      48       26       27 1        
      49       26       50 1        
      50       27       28 2        
      51       27       51 1        
      52       28       29 1        
      53       28       52 1        

