#        1GCZ_R01_S0001_C0000_L00003_S0001_C0035_G0010_E0001.mol2
#        Tue Jun  6 14:04:37 2017
#        Descriptor:      4     5     2     8     7    14
#        Energy - RMSD - RMSD MassCentre:     -60.1967    999.9999    999.9999
#        Receptor:       1  Surface Point:     1  Conformer:     0
#        Ligand:         3  Surface Point:     1  Conformer:    35
#        BUDE Formal Charge: 0
#        ATOM Count: 58
#        Heavy ATOM Count: 30
@<TRIPOS>MOLECULE
ZINC61580633_1GCZ_R01_S0001_C0000_L00003_S0001_C0035_G0010_E0001
 58 59 0 0 0
SMALL
USER_CHARGES
@<TRIPOS>ATOM
       1 C1         0.3443    0.2427    0.6757 C.3       1 <0>        -0.1532 
       2 C2        -1.1347    0.2221    1.0508 C.3       1 <0>        -0.1224 
       3 C3        -1.2835   -0.2108    2.5087 C.3       1 <0>        -0.1198 
       4 C4        -2.7644   -0.2315    2.8844 C.3       1 <0>         0.0610 
       5 O1        -2.9036   -0.6367    4.2487 O.3       1 <0>        -0.3878 
       6 C5        -2.2421    0.2615    5.1434 C.3       1 <0>         0.0487 
       7 C6        -2.4268   -0.2242    6.5803 C.3       1 <0>         0.1244 
       8 N1        -1.7468    0.6991    7.5000 N.am      1 <0>        -0.7216 
       9 C7        -1.7751    0.4728    8.8103 C.2       1 <0>         0.5161 
      10 O2        -1.2067    1.2446    9.5810 O.2       1 <0>        -0.5151 
      11 C8        -2.5057   -0.7325    9.3522 C.3       1 <0>         0.0490 
      12 O3        -1.7954   -1.9205    8.9932 O.3       1 <0>        -0.3194 
      13 C9        -2.3016   -3.1063    9.3936 C.2       1 <0>         0.5417 
      14 O4        -3.3349   -3.1419   10.0413 O.2       1 <0>        -0.5337 
      15 C10       -1.6025   -4.3636    9.0467 C.2       1 <0>        -0.2559 
      16 C11       -2.0615   -5.7130    9.4454 C.2       1 <0>        -0.0791 
      17 C12       -1.2430   -6.6762    9.0159 C.2       1 <0>        -0.2585 
      18 S1         0.1326   -6.0444    8.0988 S.3       1 <0>         0.3028 
      19 C13       -0.4652   -4.3960    8.3390 C.2       1 <0>         0.0893 
      20 N2         0.1408   -3.2564    7.8796 N.am      1 <0>        -0.6099 
      21 C14        1.2696   -3.3378    7.1809 C.2       1 <0>         0.5551 
      22 O5         1.7696   -4.4369    6.9468 O.2       1 <0>        -0.4939 
      23 C15        1.9230   -2.1058    6.6853 C.ar      1 <0>        -0.1466 
      24 C16        3.1112   -2.2375    5.9567 C.ar      1 <0>        -0.0772 
      25 C17        3.8141   -1.1064    5.5252 C.ar      1 <0>        -0.1241 
      26 C18        3.3467    0.1788    5.8234 C.ar      1 <0>        -0.0446 
      27 C19        2.1316    0.3137    6.5056 C.ar      1 <0>        -0.1261 
      28 C20        1.4167   -0.8201    6.9099 C.ar      1 <0>        -0.0460 
      29 C21        4.1516    1.3854    5.4029 C.3       1 <0>        -0.0928 
      30 C22        5.1238    1.7608    6.5176 C.3       1 <0>        -0.1485 
      31 H1         0.7609   -0.7557    0.7909 H         1 <0>         0.0567 
      32 H2         0.8734    0.9346    1.3274 H         1 <0>         0.0554 
      33 H3         0.4510    0.5639   -0.3583 H         1 <0>         0.0557 
      34 H4        -1.5556    1.2174    0.9241 H         1 <0>         0.0632 
      35 H5        -1.6627   -0.4799    0.4090 H         1 <0>         0.0635 
      36 H6        -0.8637   -1.2063    2.6367 H         1 <0>         0.0711 
      37 H7        -0.7566    0.4911    3.1517 H         1 <0>         0.0704 
      38 H8        -3.1853    0.7638    2.7577 H         1 <0>         0.0498 
      39 H9        -3.2923   -0.9338    2.2426 H         1 <0>         0.0505 
      40 H10       -2.6687    1.2570    5.0402 H         1 <0>         0.0584 
      41 H11       -1.1808    0.2948    4.9062 H         1 <0>         0.0702 
      42 H12       -1.9997   -1.2193    6.6851 H         1 <0>         0.0872 
      43 H13       -3.4877   -0.2570    6.8190 H         1 <0>         0.0805 
      44 H14       -1.2582    1.5054    7.1376 H         1 <0>         0.4058 
      45 H15       -2.5691   -0.6620   10.4360 H         1 <0>         0.1008 
      46 H16       -3.5084   -0.7690    8.9313 H         1 <0>         0.0999 
      47 H17       -2.9672   -5.8774   10.0102 H         1 <0>         0.1557 
      48 H18       -1.4226   -7.7242    9.2046 H         1 <0>         0.1929 
      49 H19       -0.2697   -2.3539    8.0718 H         1 <0>         0.4317 
      50 H20        3.4940   -3.2210    5.7277 H         1 <0>         0.1287 
      51 H21        4.7263   -1.2204    4.9585 H         1 <0>         0.1326 
      52 H22        1.7521    1.3036    6.7115 H         1 <0>         0.1342 
      53 H23        0.4581   -0.6548    7.3792 H         1 <0>         0.1410 
      54 H24        3.4799    2.2194    5.2105 H         1 <0>         0.0777 
      55 H25        4.7088    1.1515    4.4982 H         1 <0>         0.0771 
      56 H26        5.8028    0.9307    6.7005 H         1 <0>         0.0623 
      57 H27        4.5661    1.9808    7.4256 H         1 <0>         0.0572 
      58 H28        5.6942    2.6381    6.2200 H         1 <0>         0.0578 
@<TRIPOS>BOND
       1        1        2 1        
       2        1       31 1        
       3        1       32 1        
       4        1       33 1        
       5        2        3 1        
       6        2       34 1        
       7        2       35 1        
       8        3        4 1        
       9        3       36 1        
      10        3       37 1        
      11        4        5 1        
      12        4       38 1        
      13        4       39 1        
      14        5        6 1        
      15        6        7 1        
      16        6       40 1        
      17        6       41 1        
      18        7        8 1        
      19        7       42 1        
      20        7       43 1        
      21        8        9 am       
      22        8       44 1        
      23        9       10 2        
      24        9       11 1        
      25       11       12 1        
      26       11       45 1        
      27       11       46 1        
      28       12       13 1        
      29       13       14 2        
      30       13       15 1        
      31       15       19 2        
      32       15       16 1        
      33       16       17 2        
      34       16       47 1        
      35       17       18 1        
      36       17       48 1        
      37       18       19 1        
      38       19       20 1        
      39       20       21 am       
      40       20       49 1        
      41       21       22 2        
      42       21       23 1        
      43       23       28 ar       
      44       23       24 ar       
      45       24       25 ar       
      46       24       50 1        
      47       25       26 ar       
      48       25       51 1        
      49       26       27 ar       
      50       26       29 1        
      51       27       28 ar       
      52       27       52 1        
      53       28       53 1        
      54       29       30 1        
      55       29       54 1        
      56       29       55 1        
      57       30       56 1        
      58       30       57 1        
      59       30       58 1        

