#        1GCZ_R01_S0001_C0000_L00017_S0001_C0009_G0010_E0001.mol2
#        Tue Jun  6 10:01:04 2017
#        Descriptor:     14     5    14    10     7    13
#        Energy - RMSD - RMSD MassCentre:     -77.3886    999.9999    999.9999
#        Receptor:       1  Surface Point:     1  Conformer:     0
#        Ligand:        17  Surface Point:     1  Conformer:     9
#        BUDE Formal Charge: 0
#        ATOM Count: 52
#        Heavy ATOM Count: 29
@<TRIPOS>MOLECULE
ZINC61282001_1GCZ_R01_S0001_C0000_L00017_S0001_C0009_G0010_E0001
 52 53 0 0 0
SMALL
USER_CHARGES
@<TRIPOS>ATOM
       1 C1         4.3164   -4.5594    9.2809 C.3       1 <0>        -0.1391 
       2 C2         2.8849   -4.8934    8.8712 C.3       1 <0>        -0.1418 
       3 C3         2.7224   -4.6708    7.3866 C.2       1 <0>         0.5169 
       4 O1         1.9073   -3.8478    6.9728 O.2       1 <0>        -0.5335 
       5 N1         3.4610   -5.3652    6.5257 N.am      1 <0>        -0.7285 
       6 C4         3.3027   -5.1486    5.0805 C.3       1 <0>         0.1288 
       7 C5         3.9879   -3.8618    4.6873 C.2       1 <0>         0.4630 
       8 O2         4.9370   -3.8868    3.9617 O.2       1 <0>        -0.4988 
       9 O3         3.5279   -2.6822    5.1557 O.3       1 <0>        -0.3175 
      10 C6         4.2092   -1.4902    4.7561 C.3       1 <0>         0.0731 
      11 C7         5.6637   -1.5568    5.2130 C.3       1 <0>        -0.1692 
      12 C8         3.5388   -0.2929    5.3865 C.2       1 <0>         0.5202 
      13 O4         4.1917    0.4824    6.0833 O.2       1 <0>        -0.4963 
      14 N2         2.2416   -0.0768    5.1884 N.am      1 <0>        -0.6538 
      15 C9         1.6120    1.0445    5.7785 C.ar      1 <0>         0.2101 
      16 C10        2.1610    1.6801    6.8985 C.ar      1 <0>        -0.1321 
      17 C11        1.4775    2.7551    7.4792 C.ar      1 <0>        -0.0675 
      18 C12        0.2582    3.1889    6.9434 C.ar      1 <0>        -0.1401 
      19 C13       -0.2690    2.5733    5.8019 C.ar      1 <0>        -0.0656 
      20 C14        0.4030    1.4872    5.2288 C.ar      1 <0>        -0.1718 
      21 C15       -0.0990    0.7435    4.0517 C.2       1 <0>         0.5702 
      22 O5         0.5406   -0.2088    3.6079 O.2       1 <0>        -0.5422 
      23 N3        -1.2413    1.1054    3.4746 N.am      1 <0>        -0.7214 
      24 C16       -1.7398    0.3668    2.3055 C.3       1 <0>         0.2043 
      25 C17       -0.9153    0.7287    1.0935 C.2       1 <0>        -0.0464 
      26 C18        0.1193    1.5798    1.0644 C.2       1 <0>        -0.1782 
      27 C19        0.5426    1.5507   -0.3536 C.2       1 <0>        -0.2183 
      28 C20       -0.2957    0.6841   -0.9287 C.2       1 <0>        -0.0240 
      29 O6        -1.2617    0.1100   -0.1055 O.3       1 <0>        -0.1712 
      30 H1         4.5229   -3.5149    9.0566 H         1 <0>         0.0628 
      31 H2         4.4372   -4.7324   10.3483 H         1 <0>         0.0628 
      32 H3         5.0079   -5.1929    8.7296 H         1 <0>         0.0640 
      33 H4         2.1930   -4.2507    9.4116 H         1 <0>         0.0966 
      34 H5         2.6732   -5.9343    9.1066 H         1 <0>         0.0966 
      35 H6         4.1306   -6.0414    6.8643 H         1 <0>         0.4131 
      36 H7         3.7510   -5.9780    4.5375 H         1 <0>         0.1171 
      37 H8         2.2445   -5.0845    4.8364 H         1 <0>         0.1171 
      38 H9         4.1726   -1.3967    3.6727 H         1 <0>         0.1185 
      39 H10        5.6986   -1.6627    6.2953 H         1 <0>         0.0777 
      40 H11        6.1502   -2.4117    4.7484 H         1 <0>         0.0803 
      41 H12        6.1772   -0.6433    4.9208 H         1 <0>         0.0842 
      42 H13        1.7056   -0.7134    4.6164 H         1 <0>         0.4245 
      43 H14        3.0987    1.3403    7.3126 H         1 <0>         0.1486 
      44 H15        1.8902    3.2438    8.3494 H         1 <0>         0.1348 
      45 H16       -0.2765    4.0057    7.4051 H         1 <0>         0.1332 
      46 H17       -1.1901    2.9367    5.3705 H         1 <0>         0.1296 
      47 H18       -1.7656    1.8876    3.8399 H         1 <0>         0.4054 
      48 H19       -2.7808    0.6291    2.1285 H         1 <0>         0.1035 
      49 H20       -1.6614   -0.7021    2.4922 H         1 <0>         0.0890 
      50 H21        0.5602    2.1594    1.8619 H         1 <0>         0.1520 
      51 H22        1.3490    2.0982   -0.8185 H         1 <0>         0.1526 
      52 H23       -0.2721    0.4177   -1.9750 H         1 <0>         0.2068 
@<TRIPOS>BOND
       1        1        2 1        
       2        1       30 1        
       3        1       31 1        
       4        1       32 1        
       5        2        3 1        
       6        2       33 1        
       7        2       34 1        
       8        3        4 2        
       9        3        5 am       
      10        5        6 1        
      11        5       35 1        
      12        6        7 1        
      13        6       36 1        
      14        6       37 1        
      15        7        8 2        
      16        7        9 1        
      17        9       10 1        
      18       10       11 1        
      19       10       12 1        
      20       10       38 1        
      21       11       39 1        
      22       11       40 1        
      23       11       41 1        
      24       12       13 2        
      25       12       14 am       
      26       14       15 1        
      27       14       42 1        
      28       15       20 ar       
      29       15       16 ar       
      30       16       17 ar       
      31       16       43 1        
      32       17       18 ar       
      33       17       44 1        
      34       18       19 ar       
      35       18       45 1        
      36       19       20 ar       
      37       19       46 1        
      38       20       21 1        
      39       21       22 2        
      40       21       23 am       
      41       23       24 1        
      42       23       47 1        
      43       24       25 1        
      44       24       48 1        
      45       24       49 1        
      46       25       29 1        
      47       25       26 2        
      48       26       27 1        
      49       26       50 1        
      50       27       28 2        
      51       27       51 1        
      52       28       29 1        
      53       28       52 1        

