#        1GCZ_R01_S0001_C0000_L00017_S0001_C0009_G0010_E0001.mol2
#        Tue Jun  6 14:18:32 2017
#        Descriptor:     17     5    10    10     7    14
#        Energy - RMSD - RMSD MassCentre:     -72.3770    999.9999    999.9999
#        Receptor:       1  Surface Point:     1  Conformer:     0
#        Ligand:        17  Surface Point:     1  Conformer:     9
#        BUDE Formal Charge: 0
#        ATOM Count: 52
#        Heavy ATOM Count: 29
@<TRIPOS>MOLECULE
ZINC61282001_1GCZ_R01_S0001_C0000_L00017_S0001_C0009_G0010_E0001
 52 53 0 0 0
SMALL
USER_CHARGES
@<TRIPOS>ATOM
       1 C1         4.5150   -4.5519   10.1737 C.3       1 <0>        -0.1391 
       2 C2         2.9915   -4.4803   10.2228 C.3       1 <0>        -0.1418 
       3 C3         2.4468   -4.3998    8.8168 C.2       1 <0>         0.5169 
       4 O1         1.7847   -3.4236    8.4678 O.2       1 <0>        -0.5335 
       5 N1         2.6829   -5.3850    7.9552 N.am      1 <0>        -0.7285 
       6 C4         2.1526   -5.3067    6.5866 C.3       1 <0>         0.1288 
       7 C5         2.9918   -4.3475    5.7767 C.2       1 <0>         0.4630 
       8 O2         3.6343   -4.7483    4.8523 O.2       1 <0>        -0.4988 
       9 O3         3.0161   -3.0363    6.0971 O.3       1 <0>        -0.3175 
      10 C6         3.8254   -2.1664    5.3015 C.3       1 <0>         0.0731 
      11 C7         5.2814   -2.6178    5.3727 C.3       1 <0>        -0.1692 
      12 C8         3.7108   -0.7548    5.8253 C.2       1 <0>         0.5202 
      13 O4         4.7213   -0.1373    6.1576 O.2       1 <0>        -0.4963 
      14 N2         2.5164   -0.1788    5.9277 N.am      1 <0>        -0.6538 
      15 C9         2.4073    1.1438    6.4185 C.ar      1 <0>         0.2101 
      16 C10        3.4158    1.7120    7.2058 C.ar      1 <0>        -0.1321 
      17 C11        3.2426    3.0061    7.7111 C.ar      1 <0>        -0.0675 
      18 C12        2.0725    3.7230    7.4299 C.ar      1 <0>        -0.1401 
      19 C13        1.0826    3.1645    6.6127 C.ar      1 <0>        -0.0656 
      20 C14        1.2448    1.8643    6.1199 C.ar      1 <0>        -0.1718 
      21 C15        0.2342    1.1727    5.2886 C.2       1 <0>         0.5702 
      22 O5         0.4405    0.0244    4.8989 O.2       1 <0>        -0.5422 
      23 N3        -0.8963    1.7933    4.9634 N.am      1 <0>        -0.7214 
      24 C16       -1.8999    1.1064    4.1377 C.3       1 <0>         0.2043 
      25 C17       -1.4206    1.0505    2.7070 C.2       1 <0>        -0.0464 
      26 C18       -0.2619    1.5353    2.2400 C.2       1 <0>        -0.1782 
      27 C19       -0.3139    1.2074    0.7977 C.2       1 <0>        -0.2183 
      28 C20       -1.4807    0.5751    0.6465 C.2       1 <0>        -0.0240 
      29 O6        -2.2630    0.4268    1.7895 O.3       1 <0>        -0.1712 
      30 H1         4.9044   -3.6554    9.6958 H         1 <0>         0.0628 
      31 H2         4.9069   -4.6232   11.1862 H         1 <0>         0.0628 
      32 H3         4.8180   -5.4279    9.6042 H         1 <0>         0.0640 
      33 H4         2.6871   -3.5968   10.7802 H         1 <0>         0.0966 
      34 H5         2.6016   -5.3706   10.7118 H         1 <0>         0.0966 
      35 H6         3.2264   -6.1871    8.2407 H         1 <0>         0.4131 
      36 H7         2.1848   -6.2924    6.1274 H         1 <0>         0.1171 
      37 H8         1.1242   -4.9527    6.6150 H         1 <0>         0.1171 
      38 H9         3.4854   -2.1978    4.2684 H         1 <0>         0.1185 
      39 H10        5.6163   -2.5978    6.4076 H         1 <0>         0.0777 
      40 H11        5.3660   -3.6298    4.9829 H         1 <0>         0.0803 
      41 H12        5.8979   -1.9468    4.7784 H         1 <0>         0.0842 
      42 H13        1.6866   -0.6858    5.6549 H         1 <0>         0.4245 
      43 H14        4.3146    1.1550    7.4251 H         1 <0>         0.1486 
      44 H15        4.0121    3.4470    8.3273 H         1 <0>         0.1348 
      45 H16        1.9331    4.7135    7.8371 H         1 <0>         0.1332 
      46 H17        0.1998    3.7366    6.3680 H         1 <0>         0.1296 
      47 H18       -1.0646    2.7362    5.2839 H         1 <0>         0.4054 
      48 H19       -2.8411    1.6503    4.1847 H         1 <0>         0.1035 
      49 H20       -2.0458    0.0953    4.5118 H         1 <0>         0.0890 
      50 H21        0.5347    2.0447    2.7619 H         1 <0>         0.1520 
      51 H22        0.4246    1.4225    0.0396 H         1 <0>         0.1526 
      52 H23       -1.8468    0.1899   -0.2936 H         1 <0>         0.2068 
@<TRIPOS>BOND
       1        1        2 1        
       2        1       30 1        
       3        1       31 1        
       4        1       32 1        
       5        2        3 1        
       6        2       33 1        
       7        2       34 1        
       8        3        4 2        
       9        3        5 am       
      10        5        6 1        
      11        5       35 1        
      12        6        7 1        
      13        6       36 1        
      14        6       37 1        
      15        7        8 2        
      16        7        9 1        
      17        9       10 1        
      18       10       11 1        
      19       10       12 1        
      20       10       38 1        
      21       11       39 1        
      22       11       40 1        
      23       11       41 1        
      24       12       13 2        
      25       12       14 am       
      26       14       15 1        
      27       14       42 1        
      28       15       20 ar       
      29       15       16 ar       
      30       16       17 ar       
      31       16       43 1        
      32       17       18 ar       
      33       17       44 1        
      34       18       19 ar       
      35       18       45 1        
      36       19       20 ar       
      37       19       46 1        
      38       20       21 1        
      39       21       22 2        
      40       21       23 am       
      41       23       24 1        
      42       23       47 1        
      43       24       25 1        
      44       24       48 1        
      45       24       49 1        
      46       25       29 1        
      47       25       26 2        
      48       26       27 1        
      49       26       50 1        
      50       27       28 2        
      51       27       51 1        
      52       28       29 1        
      53       28       52 1        

