#        1GCZ_R01_S0001_C0000_L00017_S0001_C0010_G0010_E0001.mol2
#        Tue Jun  6 10:01:05 2017
#        Descriptor:     11    24    31     9     9    14
#        Energy - RMSD - RMSD MassCentre:     -67.9396    999.9999    999.9999
#        Receptor:       1  Surface Point:     1  Conformer:     0
#        Ligand:        17  Surface Point:     1  Conformer:    10
#        BUDE Formal Charge: 0
#        ATOM Count: 52
#        Heavy ATOM Count: 29
@<TRIPOS>MOLECULE
ZINC61282001_1GCZ_R01_S0001_C0000_L00017_S0001_C0010_G0010_E0001
 52 53 0 0 0
SMALL
USER_CHARGES
@<TRIPOS>ATOM
       1 C1        -1.9276   -1.5087    6.8525 C.3       1 <0>        -0.1391 
       2 C2        -0.5256   -1.8136    7.3720 C.3       1 <0>        -0.1418 
       3 C3        -0.0651   -0.6872    8.2660 C.2       1 <0>         0.5169 
       4 O1        -0.8001    0.2781    8.4686 O.2       1 <0>        -0.5335 
       5 N1         1.1361   -0.7388    8.8346 N.am      1 <0>        -0.7285 
       6 C4         2.0145   -1.8922    8.5924 C.3       1 <0>         0.1288 
       7 C5         2.6292   -1.7757    7.2181 C.2       1 <0>         0.4630 
       8 O2         2.3609   -2.5766    6.3729 O.2       1 <0>        -0.4988 
       9 O3         3.4826   -0.7661    6.9443 O.3       1 <0>        -0.3175 
      10 C6         4.0396   -0.6969    5.6291 C.3       1 <0>         0.0731 
      11 C7         5.0259    0.4651    5.5539 C.3       1 <0>        -0.1692 
      12 C8         2.9323   -0.4817    4.6252 C.2       1 <0>         0.5202 
      13 O4         2.7594   -1.2918    3.7160 O.2       1 <0>        -0.4963 
      14 N2         2.1436    0.5846    4.7240 N.am      1 <0>        -0.6538 
      15 C9         1.1057    0.7877    3.7840 C.ar      1 <0>         0.2101 
      16 C10        1.1398    0.1827    2.5221 C.ar      1 <0>        -0.1321 
      17 C11        0.1160    0.4519    1.6058 C.ar      1 <0>        -0.0675 
      18 C12       -0.9305    1.3167    1.9505 C.ar      1 <0>        -0.1401 
      19 C13       -0.9793    1.8911    3.2262 C.ar      1 <0>        -0.0656 
      20 C14        0.0516    1.6378    4.1389 C.ar      1 <0>        -0.1718 
      21 C15        0.1118    2.2356    5.4915 C.2       1 <0>         0.5702 
      22 O5         1.0548    1.9753    6.2370 O.2       1 <0>        -0.5422 
      23 N3        -0.8540    3.0537    5.9001 N.am      1 <0>        -0.7214 
      24 C16       -0.7943    3.6473    7.2435 C.3       1 <0>         0.2043 
      25 C17        0.2524    4.7355    7.2658 C.2       1 <0>        -0.0464 
      26 C18        1.4809    4.6425    7.7929 C.2       1 <0>        -0.1782 
      27 C19        2.0625    5.9789    7.5350 C.2       1 <0>        -0.2183 
      28 C20        1.0961    6.6388    6.8907 C.2       1 <0>        -0.0240 
      29 O6        -0.0936    5.9477    6.6732 O.3       1 <0>        -0.1712 
      30 H1        -1.9074   -0.5865    6.2753 H         1 <0>         0.0628 
      31 H2        -2.2648   -2.3264    6.2189 H         1 <0>         0.0628 
      32 H3        -2.6087   -1.3959    7.6934 H         1 <0>         0.0640 
      33 H4         0.1594   -1.9126    6.5324 H         1 <0>         0.0966 
      34 H5        -0.5423   -2.7421    7.9388 H         1 <0>         0.0966 
      35 H6         1.4452    0.0141    9.4328 H         1 <0>         0.4131 
      36 H7         2.8033   -1.9118    9.3414 H         1 <0>         0.1171 
      37 H8         1.4336   -2.8102    8.6525 H         1 <0>         0.1171 
      38 H9         4.5566   -1.6274    5.4039 H         1 <0>         0.1185 
      39 H10        4.5106    1.3934    5.7913 H         1 <0>         0.0777 
      40 H11        5.8308    0.3035    6.2678 H         1 <0>         0.0803 
      41 H12        5.4384    0.5254    4.5489 H         1 <0>         0.0842 
      42 H13        2.2856    1.2498    5.4705 H         1 <0>         0.4245 
      43 H14        1.9506   -0.4797    2.2572 H         1 <0>         0.1486 
      44 H15        0.1411   -0.0035    0.6269 H         1 <0>         0.1348 
      45 H16       -1.7085    1.5379    1.2349 H         1 <0>         0.1332 
      46 H17       -1.8086    2.5268    3.4997 H         1 <0>         0.1296 
      47 H18       -1.6280    3.2666    5.2871 H         1 <0>         0.4054 
      48 H19       -0.5345    2.8783    7.9680 H         1 <0>         0.1035 
      49 H20       -1.7641    4.0710    7.4956 H         1 <0>         0.0890 
      50 H21        1.9587    3.8113    8.2898 H         1 <0>         0.1520 
      51 H22        3.0457    6.3389    7.7995 H         1 <0>         0.1526 
      52 H23        1.1815    7.6585    6.5456 H         1 <0>         0.2068 
@<TRIPOS>BOND
       1        1        2 1        
       2        1       30 1        
       3        1       31 1        
       4        1       32 1        
       5        2        3 1        
       6        2       33 1        
       7        2       34 1        
       8        3        4 2        
       9        3        5 am       
      10        5        6 1        
      11        5       35 1        
      12        6        7 1        
      13        6       36 1        
      14        6       37 1        
      15        7        8 2        
      16        7        9 1        
      17        9       10 1        
      18       10       11 1        
      19       10       12 1        
      20       10       38 1        
      21       11       39 1        
      22       11       40 1        
      23       11       41 1        
      24       12       13 2        
      25       12       14 am       
      26       14       15 1        
      27       14       42 1        
      28       15       20 ar       
      29       15       16 ar       
      30       16       17 ar       
      31       16       43 1        
      32       17       18 ar       
      33       17       44 1        
      34       18       19 ar       
      35       18       45 1        
      36       19       20 ar       
      37       19       46 1        
      38       20       21 1        
      39       21       22 2        
      40       21       23 am       
      41       23       24 1        
      42       23       47 1        
      43       24       25 1        
      44       24       48 1        
      45       24       49 1        
      46       25       29 1        
      47       25       26 2        
      48       26       27 1        
      49       26       50 1        
      50       27       28 2        
      51       27       51 1        
      52       28       29 1        
      53       28       52 1        

