#        1GCZ_R01_S0001_C0000_L00017_S0001_C0010_G0010_E0001.mol2
#        Tue Jun  6 14:18:34 2017
#        Descriptor:     23    18     8     9     9    14
#        Energy - RMSD - RMSD MassCentre:     -68.3360    999.9999    999.9999
#        Receptor:       1  Surface Point:     1  Conformer:     0
#        Ligand:        17  Surface Point:     1  Conformer:    10
#        BUDE Formal Charge: 0
#        ATOM Count: 52
#        Heavy ATOM Count: 29
@<TRIPOS>MOLECULE
ZINC61282001_1GCZ_R01_S0001_C0000_L00017_S0001_C0010_G0010_E0001
 52 53 0 0 0
SMALL
USER_CHARGES
@<TRIPOS>ATOM
       1 C1        -1.1007    2.1403    9.1429 C.3       1 <0>        -0.1391 
       2 C2         0.1249    2.9572    8.7440 C.3       1 <0>        -0.1418 
       3 C3        -0.0596    3.4881    7.3426 C.2       1 <0>         0.5169 
       4 O1        -1.0875    3.2323    6.7174 O.2       1 <0>        -0.5335 
       5 N1         0.8901    4.2328    6.7836 N.am      1 <0>        -0.7285 
       6 C4         2.1187    4.5384    7.5306 C.3       1 <0>         0.1288 
       7 C5         3.0193    3.3264    7.5340 C.2       1 <0>         0.4630 
       8 O2         3.2620    2.7642    8.5601 O.2       1 <0>        -0.4988 
       9 O3         3.5507    2.8777    6.3769 O.3       1 <0>        -0.3175 
      10 C6         4.3976    1.7267    6.4297 C.3       1 <0>         0.0731 
      11 C7         4.9467    1.4337    5.0364 C.3       1 <0>        -0.1692 
      12 C8         3.6015    0.5391    6.9159 C.2       1 <0>         0.5202 
      13 O4         3.9515   -0.0634    7.9295 O.2       1 <0>        -0.4963 
      14 N2         2.5216    0.1444    6.2477 N.am      1 <0>        -0.6538 
      15 C9         1.7747   -0.9682    6.7019 C.ar      1 <0>         0.2101 
      16 C10        2.3451   -1.9321    7.5417 C.ar      1 <0>        -0.1321 
      17 C11        1.5837   -3.0424    7.9259 C.ar      1 <0>        -0.0675 
      18 C12        0.2653   -3.1847    7.4744 C.ar      1 <0>        -0.1401 
      19 C13       -0.3125   -2.2003    6.6639 C.ar      1 <0>        -0.0656 
      20 C14        0.4514   -1.0975    6.2639 C.ar      1 <0>        -0.1718 
      21 C15       -0.0562   -0.0314    5.3715 C.2       1 <0>         0.5702 
      22 O5         0.6763    0.9040    5.0532 O.2       1 <0>        -0.5422 
      23 N3        -1.3040   -0.0854    4.9145 N.am      1 <0>        -0.7214 
      24 C16       -1.8081    0.9735    4.0282 C.3       1 <0>         0.2043 
      25 C17       -1.2078    0.8056    2.6529 C.2       1 <0>        -0.0464 
      26 C18       -0.2087    1.5300    2.1307 C.2       1 <0>        -0.1782 
      27 C19       -0.0316    0.9421    0.7839 C.2       1 <0>        -0.2183 
      28 C20       -0.9394   -0.0365    0.7309 C.2       1 <0>        -0.0240 
      29 O6        -1.7411   -0.2058    1.8574 O.3       1 <0>        -0.1712 
      30 H1        -1.2142    1.3008    8.4602 H         1 <0>         0.0628 
      31 H2        -0.9736    1.7688   10.1575 H         1 <0>         0.0628 
      32 H3        -1.9867    2.7699    9.0947 H         1 <0>         0.0640 
      33 H4         1.0097    2.3249    8.7781 H         1 <0>         0.0966 
      34 H5         0.2465    3.7899    9.4336 H         1 <0>         0.0966 
      35 H6         0.7679    4.5884    5.8462 H         1 <0>         0.4131 
      36 H7         2.6342    5.3712    7.0570 H         1 <0>         0.1171 
      37 H8         1.8647    4.8035    8.5548 H         1 <0>         0.1171 
      38 H9         5.2228    1.9138    7.1136 H         1 <0>         0.1185 
      39 H10        4.1202    1.2590    4.3508 H         1 <0>         0.0777 
      40 H11        5.5313    2.2840    4.6916 H         1 <0>         0.0803 
      41 H12        5.5795    0.5495    5.0752 H         1 <0>         0.0842 
      42 H13        2.2343    0.6391    5.4154 H         1 <0>         0.4245 
      43 H14        3.3634   -1.8224    7.8842 H         1 <0>         0.1486 
      44 H15        2.0205   -3.7950    8.5655 H         1 <0>         0.1348 
      45 H16       -0.3132   -4.0519    7.7564 H         1 <0>         0.1332 
      46 H17       -1.3415   -2.2963    6.3502 H         1 <0>         0.1296 
      47 H18       -1.9046   -0.8540    5.1766 H         1 <0>         0.4054 
      48 H19       -1.5294    1.9453    4.4302 H         1 <0>         0.1035 
      49 H20       -2.8919    0.9050    3.9623 H         1 <0>         0.0890 
      50 H21        0.3504    2.3477    2.5608 H         1 <0>         0.1520 
      51 H22        0.6742    1.2311    0.0194 H         1 <0>         0.1526 
      52 H23       -1.0886   -0.6824   -0.1216 H         1 <0>         0.2068 
@<TRIPOS>BOND
       1        1        2 1        
       2        1       30 1        
       3        1       31 1        
       4        1       32 1        
       5        2        3 1        
       6        2       33 1        
       7        2       34 1        
       8        3        4 2        
       9        3        5 am       
      10        5        6 1        
      11        5       35 1        
      12        6        7 1        
      13        6       36 1        
      14        6       37 1        
      15        7        8 2        
      16        7        9 1        
      17        9       10 1        
      18       10       11 1        
      19       10       12 1        
      20       10       38 1        
      21       11       39 1        
      22       11       40 1        
      23       11       41 1        
      24       12       13 2        
      25       12       14 am       
      26       14       15 1        
      27       14       42 1        
      28       15       20 ar       
      29       15       16 ar       
      30       16       17 ar       
      31       16       43 1        
      32       17       18 ar       
      33       17       44 1        
      34       18       19 ar       
      35       18       45 1        
      36       19       20 ar       
      37       19       46 1        
      38       20       21 1        
      39       21       22 2        
      40       21       23 am       
      41       23       24 1        
      42       23       47 1        
      43       24       25 1        
      44       24       48 1        
      45       24       49 1        
      46       25       29 1        
      47       25       26 2        
      48       26       27 1        
      49       26       50 1        
      50       27       28 2        
      51       27       51 1        
      52       28       29 1        
      53       28       52 1        

