#        1GCZ_R01_S0001_C0000_L00017_S0001_C0011_G0010_E0001.mol2
#        Tue Jun  6 10:01:06 2017
#        Descriptor:     21     5    35    10    10    12
#        Energy - RMSD - RMSD MassCentre:     -87.8073    999.9999    999.9999
#        Receptor:       1  Surface Point:     1  Conformer:     0
#        Ligand:        17  Surface Point:     1  Conformer:    11
#        BUDE Formal Charge: 0
#        ATOM Count: 52
#        Heavy ATOM Count: 29
@<TRIPOS>MOLECULE
ZINC61282001_1GCZ_R01_S0001_C0000_L00017_S0001_C0011_G0010_E0001
 52 53 0 0 0
SMALL
USER_CHARGES
@<TRIPOS>ATOM
       1 C1         0.4521   -0.5224   -2.7986 C.3       1 <0>        -0.1391 
       2 C2         0.9520    0.6277   -1.9292 C.3       1 <0>        -0.1418 
       3 C3         0.0338    0.7962   -0.7423 C.2       1 <0>         0.5169 
       4 O1        -0.9390    0.0560   -0.6063 O.2       1 <0>        -0.5335 
       5 N1         0.2771    1.7459    0.1565 N.am      1 <0>        -0.7285 
       6 C4        -0.6167    1.9099    1.3119 C.3       1 <0>         0.1288 
       7 C5        -0.3326    0.8267    2.3248 C.2       1 <0>         0.4630 
       8 O2        -1.1641    0.0046    2.5709 O.2       1 <0>        -0.4988 
       9 O3         0.8618    0.7868    2.9526 O.3       1 <0>        -0.3175 
      10 C6         1.0851   -0.2574    3.9038 C.3       1 <0>         0.0731 
      11 C7         0.0532   -0.1561    5.0234 C.3       1 <0>        -0.1692 
      12 C8         2.4720   -0.1195    4.4848 C.2       1 <0>         0.5202 
      13 O4         3.2783   -1.0424    4.3794 O.2       1 <0>        -0.4963 
      14 N2         2.8219    1.0003    5.1112 N.am      1 <0>        -0.6538 
      15 C9         4.1211    1.1309    5.6563 C.ar      1 <0>         0.2101 
      16 C10        5.1709    0.3048    5.2378 C.ar      1 <0>        -0.1321 
      17 C11        6.4277    0.4365    5.8406 C.ar      1 <0>        -0.0675 
      18 C12        6.6303    1.3855    6.8507 C.ar      1 <0>        -0.1401 
      19 C13        5.5871    2.2335    7.2409 C.ar      1 <0>        -0.0656 
      20 C14        4.3247    2.0933    6.6523 C.ar      1 <0>        -0.1718 
      21 C15        3.1502    2.9103    7.0314 C.2       1 <0>         0.5702 
      22 O5         2.0676    2.7243    6.4778 O.2       1 <0>        -0.5422 
      23 N3         3.2660    3.8450    7.9704 N.am      1 <0>        -0.7214 
      24 C16        2.0995    4.6564    8.3470 C.3       1 <0>         0.2043 
      25 C17        1.8167    5.6649    7.2593 C.2       1 <0>        -0.0464 
      26 C18        2.5015    5.8109    6.1168 C.2       1 <0>        -0.1782 
      27 C19        1.7989    6.9243    5.4404 C.2       1 <0>        -0.2183 
      28 C20        0.8114    7.2475    6.2798 C.2       1 <0>        -0.0240 
      29 O6         0.7344    6.5176    7.4637 O.3       1 <0>        -0.1712 
      30 H1        -0.5498   -0.2960   -3.1576 H         1 <0>         0.0628 
      31 H2         1.1211   -0.6525   -3.6466 H         1 <0>         0.0628 
      32 H3         0.4290   -1.4374   -2.2103 H         1 <0>         0.0640 
      33 H4         0.9622    1.5462   -2.5124 H         1 <0>         0.0966 
      34 H5         1.9587    0.4080   -1.5798 H         1 <0>         0.0966 
      35 H6         1.0756    2.3544    0.0458 H         1 <0>         0.4131 
      36 H7        -0.4480    2.8839    1.7664 H         1 <0>         0.1171 
      37 H8        -1.6516    1.8366    0.9841 H         1 <0>         0.1171 
      38 H9         0.9933   -1.2232    3.4113 H         1 <0>         0.1185 
      39 H10        0.1377    0.8148    5.5069 H         1 <0>         0.0777 
      40 H11       -0.9454   -0.2687    4.6066 H         1 <0>         0.0803 
      41 H12        0.2329   -0.9424    5.7536 H         1 <0>         0.0842 
      42 H13        2.1598    1.7580    5.1978 H         1 <0>         0.4245 
      43 H14        5.0105   -0.4295    4.4623 H         1 <0>         0.1486 
      44 H15        7.2396   -0.2043    5.5297 H         1 <0>         0.1348 
      45 H16        7.5955    1.4714    7.3276 H         1 <0>         0.1332 
      46 H17        5.7596    2.9890    7.9931 H         1 <0>         0.1296 
      47 H18        4.1554    3.9969    8.4244 H         1 <0>         0.4054 
      48 H19        2.3063    5.1765    9.2799 H         1 <0>         0.1035 
      49 H20        1.2348    4.0091    8.4759 H         1 <0>         0.0890 
      50 H21        3.3588    5.2660    5.7502 H         1 <0>         0.1520 
      51 H22        2.0260    7.3708    4.4836 H         1 <0>         0.1526 
      52 H23        0.0916    8.0321    6.0991 H         1 <0>         0.2068 
@<TRIPOS>BOND
       1        1        2 1        
       2        1       30 1        
       3        1       31 1        
       4        1       32 1        
       5        2        3 1        
       6        2       33 1        
       7        2       34 1        
       8        3        4 2        
       9        3        5 am       
      10        5        6 1        
      11        5       35 1        
      12        6        7 1        
      13        6       36 1        
      14        6       37 1        
      15        7        8 2        
      16        7        9 1        
      17        9       10 1        
      18       10       11 1        
      19       10       12 1        
      20       10       38 1        
      21       11       39 1        
      22       11       40 1        
      23       11       41 1        
      24       12       13 2        
      25       12       14 am       
      26       14       15 1        
      27       14       42 1        
      28       15       20 ar       
      29       15       16 ar       
      30       16       17 ar       
      31       16       43 1        
      32       17       18 ar       
      33       17       44 1        
      34       18       19 ar       
      35       18       45 1        
      36       19       20 ar       
      37       19       46 1        
      38       20       21 1        
      39       21       22 2        
      40       21       23 am       
      41       23       24 1        
      42       23       47 1        
      43       24       25 1        
      44       24       48 1        
      45       24       49 1        
      46       25       29 1        
      47       25       26 2        
      48       26       27 1        
      49       26       50 1        
      50       27       28 2        
      51       27       51 1        
      52       28       29 1        
      53       28       52 1        

