#        1GCZ_R01_S0001_C0000_L00017_S0001_C0012_G0010_E0001.mol2
#        Tue Jun  6 10:01:07 2017
#        Descriptor:     15     4    10     9     6    14
#        Energy - RMSD - RMSD MassCentre:     -79.8189    999.9999    999.9999
#        Receptor:       1  Surface Point:     1  Conformer:     0
#        Ligand:        17  Surface Point:     1  Conformer:    12
#        BUDE Formal Charge: 0
#        ATOM Count: 52
#        Heavy ATOM Count: 29
@<TRIPOS>MOLECULE
ZINC61282001_1GCZ_R01_S0001_C0000_L00017_S0001_C0012_G0010_E0001
 52 53 0 0 0
SMALL
USER_CHARGES
@<TRIPOS>ATOM
       1 C1        -0.3655   -6.8336   11.2178 C.3       1 <0>        -0.1391 
       2 C2         1.0012   -6.5955   10.5823 C.3       1 <0>        -0.1418 
       3 C3         0.8665   -6.6174    9.0784 C.2       1 <0>         0.5169 
       4 O1         1.4812   -7.4527    8.4173 O.2       1 <0>        -0.5335 
       5 N1         0.0829   -5.7328    8.4683 N.am      1 <0>        -0.7285 
       6 C4        -0.0481   -5.7541    7.0045 C.3       1 <0>         0.1288 
       7 C5         1.1856   -5.1467    6.3807 C.2       1 <0>         0.4630 
       8 O2         1.9136   -5.8214    5.7154 O.2       1 <0>        -0.4988 
       9 O3         1.4663   -3.8406    6.5747 O.3       1 <0>        -0.3175 
      10 C6         2.6456   -3.3101    5.9642 C.3       1 <0>         0.0731 
      11 C7         3.8695   -4.0589    6.4837 C.3       1 <0>        -0.1692 
      12 C8         2.7714   -1.8443    6.3042 C.2       1 <0>         0.5202 
      13 O4         3.7901   -1.4242    6.8506 O.2       1 <0>        -0.4963 
      14 N2         1.7801   -1.0069    6.0129 N.am      1 <0>        -0.6538 
      15 C9         1.8965    0.3669    6.3310 C.ar      1 <0>         0.2101 
      16 C10        2.7864    0.8116    7.3159 C.ar      1 <0>        -0.1321 
      17 C11        2.8320    2.1747    7.6323 C.ar      1 <0>        -0.0675 
      18 C12        1.9960    3.0818    6.9688 C.ar      1 <0>        -0.1401 
      19 C13        1.1334    2.6375    5.9597 C.ar      1 <0>        -0.0656 
      20 C14        1.0729    1.2730    5.6526 C.ar      1 <0>        -0.1718 
      21 C15        0.1602    0.7031    4.6363 C.2       1 <0>         0.5702 
      22 O5         0.1541   -0.5088    4.4264 O.2       1 <0>        -0.5422 
      23 N3        -0.6527    1.5018    3.9506 N.am      1 <0>        -0.7214 
      24 C16       -1.5591    0.9357    2.9412 C.3       1 <0>         0.2043 
      25 C17       -0.7673    0.5495    1.7150 C.2       1 <0>        -0.0464 
      26 C18       -0.7097    1.2301    0.5621 C.2       1 <0>        -0.1782 
      27 C19        0.1983    0.4102   -0.2708 C.2       1 <0>        -0.2183 
      28 C20        0.5393   -0.6098    0.5217 C.2       1 <0>        -0.0240 
      29 O6        -0.0197   -0.6229    1.7975 O.3       1 <0>        -0.1712 
      30 H1        -0.7423   -7.8075   10.9121 H         1 <0>         0.0628 
      31 H2        -0.2710   -6.8045   12.3013 H         1 <0>         0.0628 
      32 H3        -1.0561   -6.0584   10.8925 H         1 <0>         0.0640 
      33 H4         1.6890   -7.3780   10.8956 H         1 <0>         0.0966 
      34 H5         1.3844   -5.6271   10.8974 H         1 <0>         0.0966 
      35 H6        -0.4224   -5.0462    9.0103 H         1 <0>         0.4131 
      36 H7        -0.1572   -6.7818    6.6644 H         1 <0>         0.1171 
      37 H8        -0.9233   -5.1791    6.7095 H         1 <0>         0.1171 
      38 H9         2.5795   -3.4268    4.8844 H         1 <0>         0.1185 
      39 H10        3.9274   -3.9517    7.5649 H         1 <0>         0.0777 
      40 H11        3.7851   -5.1126    6.2271 H         1 <0>         0.0803 
      41 H12        4.7671   -3.6450    6.0292 H         1 <0>         0.0842 
      42 H13        0.9436   -1.3519    5.5643 H         1 <0>         0.4245 
      43 H14        3.4262    0.1093    7.8293 H         1 <0>         0.1486 
      44 H15        3.5090    2.5235    8.3980 H         1 <0>         0.1348 
      45 H16        2.0193    4.1298    7.2286 H         1 <0>         0.1332 
      46 H17        0.5189    3.3468    5.4251 H         1 <0>         0.1296 
      47 H18       -0.6468    2.4969    4.1238 H         1 <0>         0.4054 
      48 H19       -2.3086    1.6769    2.6714 H         1 <0>         0.1035 
      49 H20       -2.0501    0.0547    3.3490 H         1 <0>         0.0890 
      50 H21       -1.1944    2.1528    0.2793 H         1 <0>         0.1520 
      51 H22        0.5196    0.5953   -1.2850 H         1 <0>         0.1526 
      52 H23        1.2020   -1.4113    0.2305 H         1 <0>         0.2068 
@<TRIPOS>BOND
       1        1        2 1        
       2        1       30 1        
       3        1       31 1        
       4        1       32 1        
       5        2        3 1        
       6        2       33 1        
       7        2       34 1        
       8        3        4 2        
       9        3        5 am       
      10        5        6 1        
      11        5       35 1        
      12        6        7 1        
      13        6       36 1        
      14        6       37 1        
      15        7        8 2        
      16        7        9 1        
      17        9       10 1        
      18       10       11 1        
      19       10       12 1        
      20       10       38 1        
      21       11       39 1        
      22       11       40 1        
      23       11       41 1        
      24       12       13 2        
      25       12       14 am       
      26       14       15 1        
      27       14       42 1        
      28       15       20 ar       
      29       15       16 ar       
      30       16       17 ar       
      31       16       43 1        
      32       17       18 ar       
      33       17       44 1        
      34       18       19 ar       
      35       18       45 1        
      36       19       20 ar       
      37       19       46 1        
      38       20       21 1        
      39       21       22 2        
      40       21       23 am       
      41       23       24 1        
      42       23       47 1        
      43       24       25 1        
      44       24       48 1        
      45       24       49 1        
      46       25       29 1        
      47       25       26 2        
      48       26       27 1        
      49       26       50 1        
      50       27       28 2        
      51       27       51 1        
      52       28       29 1        
      53       28       52 1        

