#        1GCZ_R01_S0001_C0000_L00017_S0001_C0013_G0010_E0001.mol2
#        Tue Jun  6 10:01:08 2017
#        Descriptor:     28    31    14    10     9    15
#        Energy - RMSD - RMSD MassCentre:     -60.0554    999.9999    999.9999
#        Receptor:       1  Surface Point:     1  Conformer:     0
#        Ligand:        17  Surface Point:     1  Conformer:    13
#        BUDE Formal Charge: 0
#        ATOM Count: 52
#        Heavy ATOM Count: 29
@<TRIPOS>MOLECULE
ZINC61282001_1GCZ_R01_S0001_C0000_L00017_S0001_C0013_G0010_E0001
 52 53 0 0 0
SMALL
USER_CHARGES
@<TRIPOS>ATOM
       1 C1         5.8153    1.7921   11.3633 C.3       1 <0>        -0.1391 
       2 C2         6.2127    1.8448    9.8909 C.3       1 <0>        -0.1418 
       3 C3         5.3797    2.8862    9.1826 C.2       1 <0>         0.5169 
       4 O1         4.5387    3.5311    9.8069 O.2       1 <0>        -0.5335 
       5 N1         5.5554    3.1064    7.8827 N.am      1 <0>        -0.7285 
       6 C4         6.5604    2.3357    7.1366 C.3       1 <0>         0.1288 
       7 C5         6.0309    0.9474    6.8677 C.2       1 <0>         0.4630 
       8 O2         6.5605   -0.0016    7.3647 O.2       1 <0>        -0.4988 
       9 O3         4.9585    0.7782    6.0654 O.3       1 <0>        -0.3175 
      10 C6         4.4932   -0.5551    5.8400 C.3       1 <0>         0.0731 
      11 C7         5.6033   -1.3803    5.1954 C.3       1 <0>        -0.1692 
      12 C8         3.2949   -0.5205    4.9219 C.2       1 <0>         0.5202 
      13 O4         3.3034   -1.1643    3.8739 O.2       1 <0>        -0.4963 
      14 N2         2.2297    0.2066    5.2465 N.am      1 <0>        -0.6538 
      15 C9         1.1061    0.2401    4.3871 C.ar      1 <0>         0.2101 
      16 C10        1.2197   -0.0833    3.0298 C.ar      1 <0>        -0.1321 
      17 C11        0.0914    0.0119    2.2065 C.ar      1 <0>        -0.0675 
      18 C12       -1.1371    0.4255    2.7375 C.ar      1 <0>        -0.1401 
      19 C13       -1.2542    0.7133    4.1024 C.ar      1 <0>        -0.0656 
      20 C14       -0.1242    0.6358    4.9252 C.ar      1 <0>        -0.1718 
      21 C15       -0.1388    0.9656    6.3679 C.2       1 <0>         0.5702 
      22 O5         0.8963    0.8844    7.0274 O.2       1 <0>        -0.5422 
      23 N3        -1.2711    1.3495    6.9505 N.am      1 <0>        -0.7214 
      24 C16       -1.2855    1.6770    8.3835 C.3       1 <0>         0.2043 
      25 C17       -2.7004    1.5927    8.9038 C.2       1 <0>        -0.0464 
      26 C18       -3.5113    2.6269    9.1661 C.2       1 <0>        -0.1782 
      27 C19       -4.7522    1.9735    9.6392 C.2       1 <0>        -0.2183 
      28 C20       -4.4823    0.6671    9.5695 C.2       1 <0>        -0.0240 
      29 O6        -3.2107    0.3152    9.1229 O.3       1 <0>        -0.1712 
      30 H1         4.7654    1.5190   11.4454 H         1 <0>         0.0628 
      31 H2         6.4247    1.0511   11.8764 H         1 <0>         0.0628 
      32 H3         5.9731    2.7688   11.8160 H         1 <0>         0.0640 
      33 H4         6.0421    0.8725    9.4335 H         1 <0>         0.0966 
      34 H5         7.2658    2.1057    9.8080 H         1 <0>         0.0966 
      35 H6         4.9988    3.8028    7.4080 H         1 <0>         0.4131 
      36 H7         6.7710    2.8322    6.1918 H         1 <0>         0.1171 
      37 H8         7.4745    2.2673    7.7227 H         1 <0>         0.1171 
      38 H9         4.2094   -1.0060    6.7887 H         1 <0>         0.1185 
      39 H10        5.8946   -0.9214    4.2529 H         1 <0>         0.0777 
      40 H11        6.4616   -1.4162    5.8627 H         1 <0>         0.0803 
      41 H12        5.2434   -2.3903    5.0116 H         1 <0>         0.0842 
      42 H13        2.2227    0.7353    6.1069 H         1 <0>         0.4245 
      43 H14        2.1693   -0.3970    2.6221 H         1 <0>         0.1486 
      44 H15        0.1739   -0.2264    1.1564 H         1 <0>         0.1348 
      45 H16       -2.0012    0.5169    2.0961 H         1 <0>         0.1332 
      46 H17       -2.2125    0.9948    4.5135 H         1 <0>         0.1296 
      47 H18       -2.1205    1.4157    6.4080 H         1 <0>         0.4054 
      48 H19       -0.9046    2.6858    8.5281 H         1 <0>         0.1035 
      49 H20       -0.6575    0.9709    8.9225 H         1 <0>         0.0890 
      50 H21       -3.3330    3.6874    9.0669 H         1 <0>         0.1520 
      51 H22       -5.6701    2.4427    9.9607 H         1 <0>         0.1526 
      52 H23       -5.1771   -0.1131    9.8434 H         1 <0>         0.2068 
@<TRIPOS>BOND
       1        1        2 1        
       2        1       30 1        
       3        1       31 1        
       4        1       32 1        
       5        2        3 1        
       6        2       33 1        
       7        2       34 1        
       8        3        4 2        
       9        3        5 am       
      10        5        6 1        
      11        5       35 1        
      12        6        7 1        
      13        6       36 1        
      14        6       37 1        
      15        7        8 2        
      16        7        9 1        
      17        9       10 1        
      18       10       11 1        
      19       10       12 1        
      20       10       38 1        
      21       11       39 1        
      22       11       40 1        
      23       11       41 1        
      24       12       13 2        
      25       12       14 am       
      26       14       15 1        
      27       14       42 1        
      28       15       20 ar       
      29       15       16 ar       
      30       16       17 ar       
      31       16       43 1        
      32       17       18 ar       
      33       17       44 1        
      34       18       19 ar       
      35       18       45 1        
      36       19       20 ar       
      37       19       46 1        
      38       20       21 1        
      39       21       22 2        
      40       21       23 am       
      41       23       24 1        
      42       23       47 1        
      43       24       25 1        
      44       24       48 1        
      45       24       49 1        
      46       25       29 1        
      47       25       26 2        
      48       26       27 1        
      49       26       50 1        
      50       27       28 2        
      51       27       51 1        
      52       28       29 1        
      53       28       52 1        

