#        1GCZ_R01_S0001_C0000_L00017_S0001_C0013_G0010_E0001.mol2
#        Tue Jun  6 14:18:40 2017
#        Descriptor:     35    15    15    11     3    14
#        Energy - RMSD - RMSD MassCentre:     -58.6998    999.9999    999.9999
#        Receptor:       1  Surface Point:     1  Conformer:     0
#        Ligand:        17  Surface Point:     1  Conformer:    13
#        BUDE Formal Charge: 0
#        ATOM Count: 52
#        Heavy ATOM Count: 29
@<TRIPOS>MOLECULE
ZINC61282001_1GCZ_R01_S0001_C0000_L00017_S0001_C0013_G0010_E0001
 52 53 0 0 0
SMALL
USER_CHARGES
@<TRIPOS>ATOM
       1 C1        -0.8014   -0.5600    5.7596 C.3       1 <0>        -0.1391 
       2 C2        -0.8685   -1.6562    6.8190 C.3       1 <0>        -0.1418 
       3 C3         0.4444   -1.7178    7.5622 C.2       1 <0>         0.5169 
       4 O1         1.3563   -0.9472    7.2663 O.2       1 <0>        -0.5335 
       5 N1         0.6151   -2.6060    8.5374 N.am      1 <0>        -0.7285 
       6 C4        -0.4746   -3.5270    8.8910 C.3       1 <0>         0.1288 
       7 C5        -0.5608   -4.6238    7.8567 C.2       1 <0>         0.4630 
       8 O2        -1.5283   -4.7155    7.1612 O.2       1 <0>        -0.4988 
       9 O3         0.4556   -5.5012    7.7176 O.3       1 <0>        -0.3175 
      10 C6         0.3287   -6.5227    6.7250 C.3       1 <0>         0.0731 
      11 C7        -0.8954   -7.3811    7.0304 C.3       1 <0>        -0.1692 
      12 C8         1.5653   -7.3893    6.7350 C.2       1 <0>         0.5202 
      13 O4         1.4646   -8.6041    6.8993 O.2       1 <0>        -0.4963 
      14 N2         2.7641   -6.8387    6.5662 N.am      1 <0>        -0.6538 
      15 C9         3.9238   -7.6494    6.5755 C.ar      1 <0>         0.2101 
      16 C10        3.9239   -8.9102    7.1838 C.ar      1 <0>        -0.1321 
      17 C11        5.1081   -9.6565    7.2124 C.ar      1 <0>        -0.0675 
      18 C12        6.2786   -9.1455    6.6372 C.ar      1 <0>        -0.1401 
      19 C13        6.2648   -7.8998    5.9987 C.ar      1 <0>        -0.0656 
      20 C14        5.0869   -7.1435    5.9831 C.ar      1 <0>        -0.1718 
      21 C15        4.9869   -5.7979    5.3749 C.2       1 <0>         0.5702 
      22 O5         3.9202   -5.1864    5.4078 O.2       1 <0>        -0.5422 
      23 N3         6.0504   -5.2508    4.7932 N.am      1 <0>        -0.7214 
      24 C16        5.9510   -3.9144    4.1890 C.3       1 <0>         0.2043 
      25 C17        7.0724   -3.7276    3.1953 C.2       1 <0>        -0.0464 
      26 C18        8.1906   -3.0144    3.3869 C.2       1 <0>        -0.1782 
      27 C19        8.9199   -3.1772    2.1094 C.2       1 <0>        -0.2183 
      28 C20        8.1275   -3.9648    1.3772 C.2       1 <0>        -0.0240 
      29 O6         6.9307   -4.3667    1.9657 O.3       1 <0>        -0.1712 
      30 H1        -0.0067   -0.7881    5.0524 H         1 <0>         0.0628 
      31 H2        -1.7521   -0.5067    5.2330 H         1 <0>         0.0628 
      32 H3        -0.5978    0.3950    6.2393 H         1 <0>         0.0640 
      33 H4        -1.0582   -2.6141    6.3392 H         1 <0>         0.0966 
      34 H5        -1.6713   -1.4355    7.5196 H         1 <0>         0.0966 
      35 H6         1.4930   -2.6481    9.0351 H         1 <0>         0.4131 
      36 H7        -0.2779   -3.9647    9.8673 H         1 <0>         0.1171 
      37 H8        -1.4159   -2.9820    8.9200 H         1 <0>         0.1171 
      38 H9         0.2158   -6.0646    5.7446 H         1 <0>         0.1185 
      39 H10       -0.7868   -7.8287    8.0161 H         1 <0>         0.0777 
      40 H11       -1.7877   -6.7592    7.0100 H         1 <0>         0.0803 
      41 H12       -0.9826   -8.1664    6.2826 H         1 <0>         0.0842 
      42 H13        2.8468   -5.8413    6.4314 H         1 <0>         0.4245 
      43 H14        3.0212   -9.2995    7.6309 H         1 <0>         0.1486 
      44 H15        5.1181  -10.6257    7.6887 H         1 <0>         0.1348 
      45 H16        7.1955   -9.7148    6.6780 H         1 <0>         0.1332 
      46 H17        7.1606   -7.5278    5.5236 H         1 <0>         0.1296 
      47 H18        6.9259   -5.7539    4.7667 H         1 <0>         0.4054 
      48 H19        6.0262   -3.1585    4.9679 H         1 <0>         0.1035 
      49 H20        4.9945   -3.8175    3.6799 H         1 <0>         0.0890 
      50 H21        8.5103   -2.4490    4.2497 H         1 <0>         0.1520 
      51 H22        9.8773   -2.7616    1.8323 H         1 <0>         0.1526 
      52 H23        8.3547   -4.2918    0.3733 H         1 <0>         0.2068 
@<TRIPOS>BOND
       1        1        2 1        
       2        1       30 1        
       3        1       31 1        
       4        1       32 1        
       5        2        3 1        
       6        2       33 1        
       7        2       34 1        
       8        3        4 2        
       9        3        5 am       
      10        5        6 1        
      11        5       35 1        
      12        6        7 1        
      13        6       36 1        
      14        6       37 1        
      15        7        8 2        
      16        7        9 1        
      17        9       10 1        
      18       10       11 1        
      19       10       12 1        
      20       10       38 1        
      21       11       39 1        
      22       11       40 1        
      23       11       41 1        
      24       12       13 2        
      25       12       14 am       
      26       14       15 1        
      27       14       42 1        
      28       15       20 ar       
      29       15       16 ar       
      30       16       17 ar       
      31       16       43 1        
      32       17       18 ar       
      33       17       44 1        
      34       18       19 ar       
      35       18       45 1        
      36       19       20 ar       
      37       19       46 1        
      38       20       21 1        
      39       21       22 2        
      40       21       23 am       
      41       23       24 1        
      42       23       47 1        
      43       24       25 1        
      44       24       48 1        
      45       24       49 1        
      46       25       29 1        
      47       25       26 2        
      48       26       27 1        
      49       26       50 1        
      50       27       28 2        
      51       27       51 1        
      52       28       29 1        
      53       28       52 1        

