#        1GCZ_R01_S0001_C0000_L00003_S0001_C0036_G0010_E0001.mol2
#        Tue Jun  6 09:55:06 2017
#        Descriptor:     14    23    36     9     5    15
#        Energy - RMSD - RMSD MassCentre:     -56.6128    999.9999    999.9999
#        Receptor:       1  Surface Point:     1  Conformer:     0
#        Ligand:         3  Surface Point:     1  Conformer:    36
#        BUDE Formal Charge: 0
#        ATOM Count: 58
#        Heavy ATOM Count: 30
@<TRIPOS>MOLECULE
ZINC61580633_1GCZ_R01_S0001_C0000_L00003_S0001_C0036_G0010_E0001
 58 59 0 0 0
SMALL
USER_CHARGES
@<TRIPOS>ATOM
       1 C1         4.8235   -1.4486    6.7706 C.3       1 <0>        -0.1532 
       2 C2         5.5852   -2.5688    6.0681 C.3       1 <0>        -0.1224 
       3 C3         6.5483   -3.2258    7.0557 C.3       1 <0>        -0.1198 
       4 C4         5.7563   -3.8202    8.2195 C.3       1 <0>         0.0610 
       5 O1         4.8915   -4.8486    7.7304 O.3       1 <0>        -0.3878 
       6 C5         4.1221   -5.4436    8.7788 C.3       1 <0>         0.0487 
       7 C6         3.2215   -6.5307    8.1944 C.3       1 <0>         0.1244 
       8 N1         2.1368   -5.9056    7.4241 N.am      1 <0>        -0.7216 
       9 C7         1.2263   -6.6652    6.8216 C.2       1 <0>         0.5161 
      10 O2         1.2912   -7.8902    6.9085 O.2       1 <0>        -0.5151 
      11 C8         0.1120   -6.0228    6.0304 C.3       1 <0>         0.0490 
      12 O3        -0.7874   -5.3626    6.9248 O.3       1 <0>        -0.3194 
      13 C9        -1.4545   -6.1174    7.8236 C.2       1 <0>         0.5417 
      14 O4        -1.2814   -7.3246    7.8556 O.2       1 <0>        -0.5337 
      15 C10       -2.3963   -5.4800    8.7704 C.2       1 <0>        -0.2559 
      16 C11       -3.1870   -6.2129    9.7844 C.2       1 <0>        -0.0791 
      17 C12       -3.9697   -5.4035   10.5017 C.2       1 <0>        -0.2585 
      18 S1        -3.8164   -3.7062   10.0241 S.3       1 <0>         0.3028 
      19 C13       -2.6329   -4.1612    8.7892 C.2       1 <0>         0.0893 
      20 N2        -2.0146   -3.2967    7.9248 N.am      1 <0>        -0.6099 
      21 C14       -2.2812   -1.9949    7.9806 C.2       1 <0>         0.5551 
      22 O5        -3.0834   -1.5668    8.8090 O.2       1 <0>        -0.4939 
      23 C15       -1.6123   -1.0624    7.0462 C.ar      1 <0>        -0.1466 
      24 C16       -1.9247    0.2993    7.1378 C.ar      1 <0>        -0.0772 
      25 C17       -1.3809    1.2198    6.2341 C.ar      1 <0>        -0.1241 
      26 C18       -0.5217    0.7938    5.2146 C.ar      1 <0>        -0.0446 
      27 C19       -0.1657   -0.5588    5.1532 C.ar      1 <0>        -0.1261 
      28 C20       -0.6888   -1.4716    6.0769 C.ar      1 <0>        -0.0460 
      29 C21        0.0051    1.7928    4.2121 C.3       1 <0>        -0.0928 
      30 C22       -0.9481    1.8697    3.0231 C.3       1 <0>        -0.1485 
      31 H1         5.5281   -0.6998    7.1268 H         1 <0>         0.0567 
      32 H2         4.2725   -1.8590    7.6141 H         1 <0>         0.0554 
      33 H3         4.1282   -0.9895    6.0711 H         1 <0>         0.0557 
      34 H4         4.8806   -3.3121    5.7006 H         1 <0>         0.0632 
      35 H5         6.1479   -2.1574    5.2329 H         1 <0>         0.0635 
      36 H6         7.1010   -4.0165    6.5528 H         1 <0>         0.0711 
      37 H7         7.2444   -2.4805    7.4348 H         1 <0>         0.0704 
      38 H8         6.4442   -4.2422    8.9492 H         1 <0>         0.0498 
      39 H9         5.1612   -3.0401    8.6898 H         1 <0>         0.0505 
      40 H10        3.5080   -4.6826    9.2557 H         1 <0>         0.0584 
      41 H11        4.7909   -5.8846    9.5149 H         1 <0>         0.0702 
      42 H12        2.7970   -7.1237    9.0017 H         1 <0>         0.0872 
      43 H13        3.8062   -7.1738    7.5399 H         1 <0>         0.0805 
      44 H14        2.0824   -4.8996    7.3521 H         1 <0>         0.4058 
      45 H15        0.5307   -5.2968    5.3366 H         1 <0>         0.1008 
      46 H16       -0.4265   -6.7876    5.4747 H         1 <0>         0.0999 
      47 H17       -3.1138   -7.2819    9.9195 H         1 <0>         0.1557 
      48 H18       -4.6112   -5.7604   11.2937 H         1 <0>         0.1929 
      49 H19       -1.3559   -3.6482    7.2447 H         1 <0>         0.4317 
      50 H20       -2.5957    0.6451    7.9102 H         1 <0>         0.1287 
      51 H21       -1.6243    2.2686    6.3185 H         1 <0>         0.1326 
      52 H22        0.5206   -0.8868    4.3865 H         1 <0>         0.1342 
      53 H23       -0.3327   -2.4894    6.0172 H         1 <0>         0.1410 
      54 H24        0.9886    1.4777    3.8697 H         1 <0>         0.0777 
      55 H25        0.0803    2.7714    4.6816 H         1 <0>         0.0771 
      56 H26       -1.9277    2.1970    3.3650 H         1 <0>         0.0623 
      57 H27       -1.0333    0.8874    2.5631 H         1 <0>         0.0572 
      58 H28       -0.5616    2.5796    2.2948 H         1 <0>         0.0578 
@<TRIPOS>BOND
       1        1        2 1        
       2        1       31 1        
       3        1       32 1        
       4        1       33 1        
       5        2        3 1        
       6        2       34 1        
       7        2       35 1        
       8        3        4 1        
       9        3       36 1        
      10        3       37 1        
      11        4        5 1        
      12        4       38 1        
      13        4       39 1        
      14        5        6 1        
      15        6        7 1        
      16        6       40 1        
      17        6       41 1        
      18        7        8 1        
      19        7       42 1        
      20        7       43 1        
      21        8        9 am       
      22        8       44 1        
      23        9       10 2        
      24        9       11 1        
      25       11       12 1        
      26       11       45 1        
      27       11       46 1        
      28       12       13 1        
      29       13       14 2        
      30       13       15 1        
      31       15       19 2        
      32       15       16 1        
      33       16       17 2        
      34       16       47 1        
      35       17       18 1        
      36       17       48 1        
      37       18       19 1        
      38       19       20 1        
      39       20       21 am       
      40       20       49 1        
      41       21       22 2        
      42       21       23 1        
      43       23       28 ar       
      44       23       24 ar       
      45       24       25 ar       
      46       24       50 1        
      47       25       26 ar       
      48       25       51 1        
      49       26       27 ar       
      50       26       29 1        
      51       27       28 ar       
      52       27       52 1        
      53       28       53 1        
      54       29       30 1        
      55       29       54 1        
      56       29       55 1        
      57       30       56 1        
      58       30       57 1        
      59       30       58 1        

