#        1GCZ_R01_S0001_C0000_L00017_S0001_C0014_G0010_E0001.mol2
#        Tue Jun  6 10:01:09 2017
#        Descriptor:     17     4     8     9     7    14
#        Energy - RMSD - RMSD MassCentre:     -71.0086    999.9999    999.9999
#        Receptor:       1  Surface Point:     1  Conformer:     0
#        Ligand:        17  Surface Point:     1  Conformer:    14
#        BUDE Formal Charge: 0
#        ATOM Count: 52
#        Heavy ATOM Count: 29
@<TRIPOS>MOLECULE
ZINC61282001_1GCZ_R01_S0001_C0000_L00017_S0001_C0014_G0010_E0001
 52 53 0 0 0
SMALL
USER_CHARGES
@<TRIPOS>ATOM
       1 C1        -2.3349   -2.3550    6.4403 C.3       1 <0>        -0.1391 
       2 C2        -2.1320   -2.4845    7.9472 C.3       1 <0>        -0.1418 
       3 C3        -0.8697   -3.2675    8.2186 C.2       1 <0>         0.5169 
       4 O1         0.0545   -2.7489    8.8430 O.2       1 <0>        -0.5335 
       5 N1        -0.7571   -4.5188    7.7823 N.am      1 <0>        -0.7285 
       6 C4         0.4717   -5.2810    8.0466 C.3       1 <0>         0.1288 
       7 C5         1.5618   -4.8172    7.1103 C.2       1 <0>         0.4630 
       8 O2         2.0020   -5.5640    6.2879 O.2       1 <0>        -0.4988 
       9 O3         2.0394   -3.5579    7.2023 O.3       1 <0>        -0.3175 
      10 C6         3.0715   -3.1639    6.2944 C.3       1 <0>         0.0731 
      11 C7         4.2893   -4.0635    6.4856 C.3       1 <0>        -0.1692 
      12 C8         3.4587   -1.7298    6.5655 C.2       1 <0>         0.5202 
      13 O4         4.6283   -1.4448    6.8176 O.2       1 <0>        -0.4963 
      14 N2         2.5343   -0.7741    6.5317 N.am      1 <0>        -0.6538 
      15 C9         2.8955    0.5702    6.7857 C.ar      1 <0>         0.2101 
      16 C10        4.0603    0.8881    7.4942 C.ar      1 <0>        -0.1321 
      17 C11        4.3519    2.2303    7.7653 C.ar      1 <0>        -0.0675 
      18 C12        3.4867    3.2425    7.3305 C.ar      1 <0>        -0.1401 
      19 C13        2.3418    2.9221    6.5914 C.ar      1 <0>        -0.0656 
      20 C14        2.0381    1.5801    6.3333 C.ar      1 <0>        -0.1718 
      21 C15        0.8282    1.1413    5.6024 C.2       1 <0>         0.5702 
      22 O5         0.6207   -0.0575    5.4213 O.2       1 <0>        -0.5422 
      23 N3        -0.0338    2.0434    5.1419 N.am      1 <0>        -0.7214 
      24 C16       -1.2354    1.6075    4.4160 C.3       1 <0>         0.2043 
      25 C17       -0.8469    1.1484    3.0310 C.2       1 <0>        -0.0464 
      26 C18        0.3930    1.1238    2.5232 C.2       1 <0>        -0.1782 
      27 C19        0.1893    0.5915    1.1572 C.2       1 <0>        -0.2183 
      28 C20       -1.1269    0.3768    1.0814 C.2       1 <0>        -0.0240 
      29 O6        -1.8782    0.7006    2.2088 O.3       1 <0>        -0.1712 
      30 H1        -2.4339   -3.3458    6.0018 H         1 <0>         0.0628 
      31 H2        -3.2373   -1.7794    6.2447 H         1 <0>         0.0628 
      32 H3        -1.4781   -1.8477    6.0019 H         1 <0>         0.0640 
      33 H4        -2.9816   -3.0043    8.3849 H         1 <0>         0.0966 
      34 H5        -2.0454   -1.4938    8.3885 H         1 <0>         0.0966 
      35 H6        -1.5153   -4.9457    7.2694 H         1 <0>         0.4131 
      36 H7         0.7853   -5.1193    9.0757 H         1 <0>         0.1171 
      37 H8         0.2835   -6.3406    7.8864 H         1 <0>         0.1171 
      38 H9         2.7100   -3.2542    5.2721 H         1 <0>         0.1185 
      39 H10        4.6422   -3.9817    7.5116 H         1 <0>         0.0777 
      40 H11        4.0136   -5.0950    6.2774 H         1 <0>         0.0803 
      41 H12        5.0788   -3.7537    5.8042 H         1 <0>         0.0842 
      42 H13        1.5739   -1.0081    6.3248 H         1 <0>         0.4245 
      43 H14        4.7229    0.1053    7.8326 H         1 <0>         0.1486 
      44 H15        5.2436    2.4823    8.3200 H         1 <0>         0.1348 
      45 H16        3.7041    4.2756    7.5580 H         1 <0>         0.1332 
      46 H17        1.6987    3.7091    6.2259 H         1 <0>         0.1296 
      47 H18        0.1377    3.0275    5.2912 H         1 <0>         0.4054 
      48 H19       -1.9342    2.4381    4.3409 H         1 <0>         0.1035 
      49 H20       -1.7045    0.7858    4.9529 H         1 <0>         0.0890 
      50 H21        1.3305    1.4138    2.9741 H         1 <0>         0.1520 
      51 H22        0.9337    0.4101    0.3962 H         1 <0>         0.1526 
      52 H23       -1.6301   -0.0161    0.2103 H         1 <0>         0.2068 
@<TRIPOS>BOND
       1        1        2 1        
       2        1       30 1        
       3        1       31 1        
       4        1       32 1        
       5        2        3 1        
       6        2       33 1        
       7        2       34 1        
       8        3        4 2        
       9        3        5 am       
      10        5        6 1        
      11        5       35 1        
      12        6        7 1        
      13        6       36 1        
      14        6       37 1        
      15        7        8 2        
      16        7        9 1        
      17        9       10 1        
      18       10       11 1        
      19       10       12 1        
      20       10       38 1        
      21       11       39 1        
      22       11       40 1        
      23       11       41 1        
      24       12       13 2        
      25       12       14 am       
      26       14       15 1        
      27       14       42 1        
      28       15       20 ar       
      29       15       16 ar       
      30       16       17 ar       
      31       16       43 1        
      32       17       18 ar       
      33       17       44 1        
      34       18       19 ar       
      35       18       45 1        
      36       19       20 ar       
      37       19       46 1        
      38       20       21 1        
      39       21       22 2        
      40       21       23 am       
      41       23       24 1        
      42       23       47 1        
      43       24       25 1        
      44       24       48 1        
      45       24       49 1        
      46       25       29 1        
      47       25       26 2        
      48       26       27 1        
      49       26       50 1        
      50       27       28 2        
      51       27       51 1        
      52       28       29 1        
      53       28       52 1        

