#        1GCZ_R01_S0001_C0000_L00017_S0001_C0014_G0010_E0001.mol2
#        Tue Jun  6 14:18:42 2017
#        Descriptor:     17     3     7     9     7    14
#        Energy - RMSD - RMSD MassCentre:     -68.8246    999.9999    999.9999
#        Receptor:       1  Surface Point:     1  Conformer:     0
#        Ligand:        17  Surface Point:     1  Conformer:    14
#        BUDE Formal Charge: 0
#        ATOM Count: 52
#        Heavy ATOM Count: 29
@<TRIPOS>MOLECULE
ZINC61282001_1GCZ_R01_S0001_C0000_L00017_S0001_C0014_G0010_E0001
 52 53 0 0 0
SMALL
USER_CHARGES
@<TRIPOS>ATOM
       1 C1        -2.4835   -1.6561    6.7659 C.3       1 <0>        -0.1391 
       2 C2        -2.2161   -1.5717    8.2659 C.3       1 <0>        -0.1418 
       3 C3        -1.0899   -2.5098    8.6291 C.2       1 <0>         0.5169 
       4 O1        -0.0562   -2.0673    9.1274 O.2       1 <0>        -0.5335 
       5 N1        -1.2160   -3.8156    8.4099 N.am      1 <0>        -0.7285 
       6 C4        -0.1197   -4.7288    8.7635 C.3       1 <0>         0.1288 
       7 C5         0.9754   -4.6233    7.7292 C.2       1 <0>         0.4630 
       8 O2         1.2337   -5.5600    7.0338 O.2       1 <0>        -0.4988 
       9 O3         1.6630   -3.4699    7.5901 O.3       1 <0>        -0.3175 
      10 C6         2.6910   -3.4175    6.5975 C.3       1 <0>         0.0731 
      11 C7         3.7489   -4.4740    6.9030 C.3       1 <0>        -0.1692 
      12 C8         3.3297   -2.0492    6.6075 C.2       1 <0>         0.5202 
      13 O4         4.5435   -1.9375    6.7719 O.2       1 <0>        -0.4963 
      14 N2         2.5793   -0.9642    6.4388 N.am      1 <0>        -0.6538 
      15 C9         3.1763    0.3186    6.4481 C.ar      1 <0>         0.2101 
      16 C10        4.4179    0.5377    7.0563 C.ar      1 <0>        -0.1321 
      17 C11        4.9472    1.8335    7.0850 C.ar      1 <0>        -0.0675 
      18 C12        4.2407    2.8975    6.5098 C.ar      1 <0>        -0.1401 
      19 C13        3.0164    2.6675    5.8712 C.ar      1 <0>        -0.0656 
      20 C14        2.4761    1.3762    5.8557 C.ar      1 <0>        -0.1718 
      21 C15        1.1683    1.0440    5.2475 C.2       1 <0>         0.5702 
      22 O5         0.7513   -0.1127    5.2803 O.2       1 <0>        -0.5422 
      23 N3         0.4448    1.9964    4.6657 N.am      1 <0>        -0.7214 
      24 C16       -0.8540    1.6665    4.0616 C.3       1 <0>         0.2043 
      25 C17       -0.6314    0.9264    2.7644 C.2       1 <0>        -0.0464 
      26 C18        0.5542    0.6012    2.2312 C.2       1 <0>        -0.1782 
      27 C19        0.1830   -0.1025    0.9831 C.2       1 <0>        -0.2183 
      28 C20       -1.1528   -0.0915    0.9848 C.2       1 <0>        -0.0240 
      29 O6        -1.7705    0.5391    2.0623 O.3       1 <0>        -0.1712 
      30 H1        -2.7738   -2.6721    6.5065 H         1 <0>         0.0628 
      31 H2        -3.2860   -0.9704    6.5020 H         1 <0>         0.0628 
      32 H3        -1.5810   -1.3861    6.2216 H         1 <0>         0.0640 
      33 H4        -3.1137   -1.8552    8.8115 H         1 <0>         0.0966 
      34 H5        -1.9377   -0.5532    8.5285 H         1 <0>         0.0966 
      35 H6        -2.0644   -4.1801    8.0007 H         1 <0>         0.4131 
      36 H7         0.2772   -4.4591    9.7398 H         1 <0>         0.1171 
      37 H8        -0.4930   -5.7503    8.7926 H         1 <0>         0.1171 
      38 H9         2.2594   -3.6082    5.6171 H         1 <0>         0.1185 
      39 H10        4.1708   -4.2893    7.8887 H         1 <0>         0.0777 
      40 H11        3.2914   -5.4607    6.8826 H         1 <0>         0.0803 
      41 H12        4.5374   -4.4235    6.1551 H         1 <0>         0.0842 
      42 H13        1.5826   -1.0560    6.3039 H         1 <0>         0.4245 
      43 H14        4.9581   -0.2837    7.5034 H         1 <0>         0.1486 
      44 H15        5.8999    2.0116    7.5613 H         1 <0>         0.1348 
      45 H16        4.6422    3.8992    6.5506 H         1 <0>         0.1332 
      46 H17        2.4945    3.4851    5.3961 H         1 <0>         0.1296 
      47 H18        0.7883    2.9459    4.6392 H         1 <0>         0.4054 
      48 H19       -1.4060    2.5836    3.8666 H         1 <0>         0.1035 
      49 H20       -1.4222    1.0390    4.7450 H         1 <0>         0.0890 
      50 H21        1.5523    0.7912    2.5973 H         1 <0>         0.1520 
      51 H22        0.8396   -0.5339    0.2421 H         1 <0>         0.1526 
      52 H23       -1.7658   -0.5263    0.2093 H         1 <0>         0.2068 
@<TRIPOS>BOND
       1        1        2 1        
       2        1       30 1        
       3        1       31 1        
       4        1       32 1        
       5        2        3 1        
       6        2       33 1        
       7        2       34 1        
       8        3        4 2        
       9        3        5 am       
      10        5        6 1        
      11        5       35 1        
      12        6        7 1        
      13        6       36 1        
      14        6       37 1        
      15        7        8 2        
      16        7        9 1        
      17        9       10 1        
      18       10       11 1        
      19       10       12 1        
      20       10       38 1        
      21       11       39 1        
      22       11       40 1        
      23       11       41 1        
      24       12       13 2        
      25       12       14 am       
      26       14       15 1        
      27       14       42 1        
      28       15       20 ar       
      29       15       16 ar       
      30       16       17 ar       
      31       16       43 1        
      32       17       18 ar       
      33       17       44 1        
      34       18       19 ar       
      35       18       45 1        
      36       19       20 ar       
      37       19       46 1        
      38       20       21 1        
      39       21       22 2        
      40       21       23 am       
      41       23       24 1        
      42       23       47 1        
      43       24       25 1        
      44       24       48 1        
      45       24       49 1        
      46       25       29 1        
      47       25       26 2        
      48       26       27 1        
      49       26       50 1        
      50       27       28 2        
      51       27       51 1        
      52       28       29 1        
      53       28       52 1        

