#        1GCZ_R01_S0001_C0000_L00017_S0001_C0015_G0010_E0001.mol2
#        Tue Jun  6 10:01:10 2017
#        Descriptor:     21     5    36    10    10    12
#        Energy - RMSD - RMSD MassCentre:     -72.1274    999.9999    999.9999
#        Receptor:       1  Surface Point:     1  Conformer:     0
#        Ligand:        17  Surface Point:     1  Conformer:    15
#        BUDE Formal Charge: 0
#        ATOM Count: 52
#        Heavy ATOM Count: 29
@<TRIPOS>MOLECULE
ZINC61282001_1GCZ_R01_S0001_C0000_L00017_S0001_C0015_G0010_E0001
 52 53 0 0 0
SMALL
USER_CHARGES
@<TRIPOS>ATOM
       1 C1        -0.3944   -1.4874   -1.8912 C.3       1 <0>        -0.1391 
       2 C2        -0.5184   -0.5018   -0.7329 C.3       1 <0>        -0.1418 
       3 C3         0.4998    0.6006   -0.8999 C.2       1 <0>         0.5169 
       4 O1         1.2603    0.5953   -1.8667 O.2       1 <0>        -0.5335 
       5 N1         0.5746    1.5781   -0.0010 N.am      1 <0>        -0.7285 
       6 C4        -0.3342    1.5845    1.1543 C.3       1 <0>         0.1288 
       7 C5         0.1338    0.5671    2.1672 C.2       1 <0>         0.4630 
       8 O2        -0.5424   -0.3869    2.4133 O.2       1 <0>        -0.4988 
       9 O3         1.3169    0.7352    2.7951 O.3       1 <0>        -0.3175 
      10 C6         1.7182   -0.2544    3.7462 C.3       1 <0>         0.0731 
      11 C7         0.6844   -0.3339    4.8658 C.3       1 <0>        -0.1692 
      12 C8         3.0601    0.1222    4.3272 C.2       1 <0>         0.5202 
      13 O4         4.0144   -0.6466    4.2218 O.2       1 <0>        -0.4963 
      14 N2         3.2102    1.2858    4.9536 N.am      1 <0>        -0.6538 
      15 C9         4.4669    1.6400    5.4987 C.ar      1 <0>         0.2101 
      16 C10        5.6443    1.0088    5.0802 C.ar      1 <0>        -0.1321 
      17 C11        6.8591    1.3566    5.6830 C.ar      1 <0>        -0.0675 
      18 C12        6.8938    2.3264    6.6931 C.ar      1 <0>        -0.1401 
      19 C13        5.7192    2.9804    7.0833 C.ar      1 <0>        -0.0656 
      20 C14        4.5004    2.6231    6.4947 C.ar      1 <0>        -0.1718 
      21 C15        3.2018    3.2237    6.8738 C.2       1 <0>         0.5702 
      22 O5         2.1680    2.8525    6.3203 O.2       1 <0>        -0.5422 
      23 N3         3.1536    4.1644    7.8128 N.am      1 <0>        -0.7214 
      24 C16        1.8639    4.7609    8.1894 C.3       1 <0>         0.2043 
      25 C17        1.4103    5.7049    7.1017 C.2       1 <0>        -0.0464 
      26 C18        2.0593    5.9676    5.9592 C.2       1 <0>        -0.1782 
      27 C19        1.1740    6.9422    5.2828 C.2       1 <0>        -0.2183 
      28 C20        0.1454    7.0890    6.1222 C.2       1 <0>        -0.0240 
      29 O6         0.1964    6.3568    7.3061 O.3       1 <0>        -0.1712 
      30 H1         0.6019   -1.9247   -1.8894 H         1 <0>         0.0628 
      31 H2        -1.1369   -2.2745   -1.7779 H         1 <0>         0.0628 
      32 H3        -0.5597   -0.9644   -2.8308 H         1 <0>         0.0640 
      33 H4        -0.3394   -1.0207    0.2065 H         1 <0>         0.0966 
      34 H5        -1.5184   -0.0731   -0.7263 H         1 <0>         0.0966 
      35 H6         1.2553    2.3160   -0.1118 H         1 <0>         0.4131 
      36 H7        -0.3371    2.5729    1.6088 H         1 <0>         0.1171 
      37 H8        -1.3405    1.3325    0.8265 H         1 <0>         0.1171 
      38 H9         1.7954   -1.2215    3.2537 H         1 <0>         0.1185 
      39 H10        0.5990    0.6370    5.3493 H         1 <0>         0.0777 
      40 H11       -0.2795   -0.6182    4.4490 H         1 <0>         0.0803 
      41 H12        0.9978   -1.0770    5.5960 H         1 <0>         0.0842 
      42 H13        2.4266    1.9169    5.0403 H         1 <0>         0.4245 
      43 H14        5.6138    0.2577    4.3047 H         1 <0>         0.1486 
      44 H15        7.7699    0.8666    5.3721 H         1 <0>         0.1348 
      45 H16        7.8295    2.5786    7.1700 H         1 <0>         0.1332 
      46 H17        5.7579    3.7544    7.8355 H         1 <0>         0.1296 
      47 H18        4.0031    4.4684    8.2668 H         1 <0>         0.4054 
      48 H19        1.9772    5.3090    9.1224 H         1 <0>         0.1035 
      49 H20        1.1247    3.9732    8.3183 H         1 <0>         0.0890 
      50 H21        2.9982    5.5799    5.5926 H         1 <0>         0.1520 
      51 H22        1.3201    7.4212    4.3260 H         1 <0>         0.1526 
      52 H23       -0.6997    7.7366    5.9416 H         1 <0>         0.2068 
@<TRIPOS>BOND
       1        1        2 1        
       2        1       30 1        
       3        1       31 1        
       4        1       32 1        
       5        2        3 1        
       6        2       33 1        
       7        2       34 1        
       8        3        4 2        
       9        3        5 am       
      10        5        6 1        
      11        5       35 1        
      12        6        7 1        
      13        6       36 1        
      14        6       37 1        
      15        7        8 2        
      16        7        9 1        
      17        9       10 1        
      18       10       11 1        
      19       10       12 1        
      20       10       38 1        
      21       11       39 1        
      22       11       40 1        
      23       11       41 1        
      24       12       13 2        
      25       12       14 am       
      26       14       15 1        
      27       14       42 1        
      28       15       20 ar       
      29       15       16 ar       
      30       16       17 ar       
      31       16       43 1        
      32       17       18 ar       
      33       17       44 1        
      34       18       19 ar       
      35       18       45 1        
      36       19       20 ar       
      37       19       46 1        
      38       20       21 1        
      39       21       22 2        
      40       21       23 am       
      41       23       24 1        
      42       23       47 1        
      43       24       25 1        
      44       24       48 1        
      45       24       49 1        
      46       25       29 1        
      47       25       26 2        
      48       26       27 1        
      49       26       50 1        
      50       27       28 2        
      51       27       51 1        
      52       28       29 1        
      53       28       52 1        

