#        1GCZ_R01_S0001_C0000_L00017_S0001_C0015_G0010_E0001.mol2
#        Tue Jun  6 14:18:44 2017
#        Descriptor:     10     2    14    10     7    14
#        Energy - RMSD - RMSD MassCentre:     -65.4953    999.9999    999.9999
#        Receptor:       1  Surface Point:     1  Conformer:     0
#        Ligand:        17  Surface Point:     1  Conformer:    15
#        BUDE Formal Charge: 0
#        ATOM Count: 52
#        Heavy ATOM Count: 29
@<TRIPOS>MOLECULE
ZINC61282001_1GCZ_R01_S0001_C0000_L00017_S0001_C0015_G0010_E0001
 52 53 0 0 0
SMALL
USER_CHARGES
@<TRIPOS>ATOM
       1 C1         7.8028   -5.0310    7.6371 C.3       1 <0>        -0.1391 
       2 C2         6.6131   -4.6225    6.7731 C.3       1 <0>        -0.1418 
       3 C3         6.8205   -3.2158    6.2650 C.2       1 <0>         0.5169 
       4 O1         7.8370   -2.5943    6.5706 O.2       1 <0>        -0.5335 
       5 N1         5.9035   -2.6484    5.4865 N.am      1 <0>        -0.7285 
       6 C4         4.6887   -3.3912    5.1214 C.3       1 <0>         0.1288 
       7 C5         3.7375   -3.4062    6.2940 C.2       1 <0>         0.4630 
       8 O2         3.4708   -4.4378    6.8349 O.2       1 <0>        -0.4988 
       9 O3         3.1881   -2.2534    6.7318 O.3       1 <0>        -0.3175 
      10 C6         2.2932   -2.3173    7.8453 C.3       1 <0>         0.0731 
      11 C7         1.1077   -3.2123    7.4957 C.3       1 <0>        -0.1692 
      12 C8         1.7959   -0.9290    8.1703 C.2       1 <0>         0.5202 
      13 O4         1.9869   -0.4526    9.2881 O.2       1 <0>        -0.4963 
      14 N2         1.1509   -0.2211    7.2475 N.am      1 <0>        -0.6538 
      15 C9         0.6842    1.0798    7.5507 C.ar      1 <0>         0.2101 
      16 C10        1.1990    1.8023    8.6336 C.ar      1 <0>        -0.1321 
      17 C11        0.6721    3.0660    8.9259 C.ar      1 <0>        -0.0675 
      18 C12       -0.3584    3.5999    8.1417 C.ar      1 <0>        -0.1401 
      19 C13       -0.8455    2.8891    7.0384 C.ar      1 <0>        -0.0656 
      20 C14       -0.3328    1.6181    6.7533 C.ar      1 <0>        -0.1718 
      21 C15       -0.8158    0.7725    5.6388 C.2       1 <0>         0.5702 
      22 O5        -0.3249   -0.3402    5.4540 O.2       1 <0>        -0.5422 
      23 N3        -1.7804    1.2161    4.8377 N.am      1 <0>        -0.7214 
      24 C16       -2.2602    0.3761    3.7308 C.3       1 <0>         0.2043 
      25 C17       -1.2315    0.3658    2.6255 C.2       1 <0>        -0.0464 
      26 C18       -0.0544    1.0061    2.6327 C.2       1 <0>        -0.1782 
      27 C19        0.5337    0.6493    1.3221 C.2       1 <0>        -0.2183 
      28 C20       -0.3779   -0.1487    0.7596 C.2       1 <0>        -0.0240 
      29 O6        -1.5358   -0.3896    1.4955 O.3       1 <0>        -0.1712 
      30 H1         7.8809   -4.3570    8.4877 H         1 <0>         0.0628 
      31 H2         7.6596   -6.0493    7.9923 H         1 <0>         0.0628 
      32 H3         8.7147   -4.9771    7.0462 H         1 <0>         0.0640 
      33 H4         5.7023   -4.6624    7.3669 H         1 <0>         0.0966 
      34 H5         6.5266   -5.3034    5.9289 H         1 <0>         0.0966 
      35 H6         6.0412   -1.7075    5.1460 H         1 <0>         0.4131 
      36 H7         4.2092   -2.9086    4.2724 H         1 <0>         0.1171 
      37 H8         4.9532   -4.4128    4.8567 H         1 <0>         0.1171 
      38 H9         2.8152   -2.7261    8.7080 H         1 <0>         0.1185 
      39 H10        0.5941   -2.8093    6.6254 H         1 <0>         0.0777 
      40 H11        1.4647   -4.2159    7.2744 H         1 <0>         0.0803 
      41 H12        0.4207   -3.2487    8.3385 H         1 <0>         0.0842 
      42 H13        0.9940   -0.6123    6.3298 H         1 <0>         0.4245 
      43 H14        1.9901    1.3860    9.2396 H         1 <0>         0.1486 
      44 H15        1.0576    3.6248    9.7659 H         1 <0>         0.1348 
      45 H16       -0.7765    4.5665    8.3816 H         1 <0>         0.1332 
      46 H17       -1.6134    3.3223    6.4147 H         1 <0>         0.1296 
      47 H18       -2.1828    2.1298    4.9903 H         1 <0>         0.4054 
      48 H19       -3.1973    0.7780    3.3513 H         1 <0>         0.1035 
      49 H20       -2.4188   -0.6388    4.0890 H         1 <0>         0.0890 
      50 H21        0.3859    1.6350    3.3923 H         1 <0>         0.1520 
      51 H22        1.4853    0.9564    0.9141 H         1 <0>         0.1526 
      52 H23       -0.2728   -0.5994   -0.2162 H         1 <0>         0.2068 
@<TRIPOS>BOND
       1        1        2 1        
       2        1       30 1        
       3        1       31 1        
       4        1       32 1        
       5        2        3 1        
       6        2       33 1        
       7        2       34 1        
       8        3        4 2        
       9        3        5 am       
      10        5        6 1        
      11        5       35 1        
      12        6        7 1        
      13        6       36 1        
      14        6       37 1        
      15        7        8 2        
      16        7        9 1        
      17        9       10 1        
      18       10       11 1        
      19       10       12 1        
      20       10       38 1        
      21       11       39 1        
      22       11       40 1        
      23       11       41 1        
      24       12       13 2        
      25       12       14 am       
      26       14       15 1        
      27       14       42 1        
      28       15       20 ar       
      29       15       16 ar       
      30       16       17 ar       
      31       16       43 1        
      32       17       18 ar       
      33       17       44 1        
      34       18       19 ar       
      35       18       45 1        
      36       19       20 ar       
      37       19       46 1        
      38       20       21 1        
      39       21       22 2        
      40       21       23 am       
      41       23       24 1        
      42       23       47 1        
      43       24       25 1        
      44       24       48 1        
      45       24       49 1        
      46       25       29 1        
      47       25       26 2        
      48       26       27 1        
      49       26       50 1        
      50       27       28 2        
      51       27       51 1        
      52       28       29 1        
      53       28       52 1        

