#        1GCZ_R01_S0001_C0000_L00017_S0001_C0016_G0010_E0001.mol2
#        Tue Jun  6 10:01:11 2017
#        Descriptor:     27    31    13    11     9    14
#        Energy - RMSD - RMSD MassCentre:     -65.2786    999.9999    999.9999
#        Receptor:       1  Surface Point:     1  Conformer:     0
#        Ligand:        17  Surface Point:     1  Conformer:    16
#        BUDE Formal Charge: 0
#        ATOM Count: 52
#        Heavy ATOM Count: 29
@<TRIPOS>MOLECULE
ZINC61282001_1GCZ_R01_S0001_C0000_L00017_S0001_C0016_G0010_E0001
 52 53 0 0 0
SMALL
USER_CHARGES
@<TRIPOS>ATOM
       1 C1        10.0383    1.8568    4.6538 C.3       1 <0>        -0.1391 
       2 C2         8.6824    2.5063    4.9149 C.3       1 <0>        -0.1418 
       3 C3         8.0264    1.8405    6.1009 C.2       1 <0>         0.5169 
       4 O1         8.5988    0.9228    6.6864 O.2       1 <0>        -0.5335 
       5 N1         6.8287    2.2467    6.5126 N.am      1 <0>        -0.7285 
       6 C4         6.1901    1.5987    7.6670 C.3       1 <0>         0.1288 
       7 C5         5.6325    0.2598    7.2467 C.2       1 <0>         0.4630 
       8 O2         6.0844   -0.7470    7.7050 O.2       1 <0>        -0.4988 
       9 O3         4.6227    0.2002    6.3528 O.3       1 <0>        -0.3175 
      10 C6         4.1276   -1.0899    5.9851 C.3       1 <0>         0.0731 
      11 C7         5.2544   -1.9104    5.3639 C.3       1 <0>        -0.1692 
      12 C8         3.0094   -0.9320    4.9827 C.2       1 <0>         0.5202 
      13 O4         3.0783   -1.4925    3.8900 O.2       1 <0>        -0.4963 
      14 N2         1.9494   -0.1864    5.2814 N.am      1 <0>        -0.6538 
      15 C9         0.9009   -0.0373    4.3431 C.ar      1 <0>         0.2101 
      16 C10        1.1115   -0.2592    2.9770 C.ar      1 <0>        -0.1321 
      17 C11        0.0576   -0.0514    2.0791 C.ar      1 <0>        -0.0675 
      18 C12       -1.1933    0.3732    2.5449 C.ar      1 <0>        -0.1401 
      19 C13       -1.4093    0.5592    3.9155 C.ar      1 <0>        -0.0656 
      20 C14       -0.3532    0.3688    4.8144 C.ar      1 <0>        -0.1718 
      21 C15       -0.4717    0.5862    6.2736 C.2       1 <0>         0.5702 
      22 O5         0.5030    0.4090    7.0025 O.2       1 <0>        -0.5422 
      23 N3        -1.6322    0.9729    6.7957 N.am      1 <0>        -0.7214 
      24 C16       -1.7500    1.1887    8.2450 C.3       1 <0>         0.2043 
      25 C17       -1.0564    2.4768    8.6191 C.2       1 <0>        -0.0464 
      26 C18        0.1454    2.5894    9.2011 C.2       1 <0>        -0.1782 
      27 C19        0.3238    4.0531    9.3300 C.2       1 <0>        -0.2183 
      28 C20       -0.7875    4.5675    8.7963 C.2       1 <0>        -0.0240 
      29 O6        -1.7304    3.6588    8.3213 O.3       1 <0>        -0.1712 
      30 H1         9.8972    0.8010    4.4316 H         1 <0>         0.0628 
      31 H2        10.5167    2.3453    3.8076 H         1 <0>         0.0628 
      32 H3        10.6658    1.9617    5.5363 H         1 <0>         0.0640 
      33 H4         8.0488    2.3897    4.0381 H         1 <0>         0.0966 
      34 H5         8.8210    3.5648    5.1249 H         1 <0>         0.0966 
      35 H6         6.3576    3.0003    6.0325 H         1 <0>         0.4131 
      36 H7         6.9260    1.4530    8.4550 H         1 <0>         0.1171 
      37 H8         5.3826    2.2274    8.0360 H         1 <0>         0.1171 
      38 H9         3.7515   -1.6002    6.8695 H         1 <0>         0.1185 
      39 H10        5.6378   -1.3930    4.4870 H         1 <0>         0.0777 
      40 H11        6.0541   -2.0354    6.0907 H         1 <0>         0.0803 
      41 H12        4.8730   -2.8865    5.0719 H         1 <0>         0.0842 
      42 H13        1.8929    0.2738    6.1786 H         1 <0>         0.4245 
      43 H14        2.0784   -0.5816    2.6201 H         1 <0>         0.1486 
      44 H15        0.2157   -0.2110    1.0228 H         1 <0>         0.1348 
      45 H16       -1.9989    0.5516    1.8480 H         1 <0>         0.1332 
      46 H17       -2.3865    0.8495    4.2725 H         1 <0>         0.1296 
      47 H18       -2.4320    1.1180    6.1962 H         1 <0>         0.4054 
      48 H19       -1.2854    0.3590    8.7736 H         1 <0>         0.1035 
      49 H20       -2.8014    1.2499    8.5177 H         1 <0>         0.0890 
      50 H21        0.8377    1.8211    9.5117 H         1 <0>         0.1520 
      51 H22        1.1626    4.5864    9.7519 H         1 <0>         0.1526 
      52 H23       -0.9943    5.6250    8.7234 H         1 <0>         0.2068 
@<TRIPOS>BOND
       1        1        2 1        
       2        1       30 1        
       3        1       31 1        
       4        1       32 1        
       5        2        3 1        
       6        2       33 1        
       7        2       34 1        
       8        3        4 2        
       9        3        5 am       
      10        5        6 1        
      11        5       35 1        
      12        6        7 1        
      13        6       36 1        
      14        6       37 1        
      15        7        8 2        
      16        7        9 1        
      17        9       10 1        
      18       10       11 1        
      19       10       12 1        
      20       10       38 1        
      21       11       39 1        
      22       11       40 1        
      23       11       41 1        
      24       12       13 2        
      25       12       14 am       
      26       14       15 1        
      27       14       42 1        
      28       15       20 ar       
      29       15       16 ar       
      30       16       17 ar       
      31       16       43 1        
      32       17       18 ar       
      33       17       44 1        
      34       18       19 ar       
      35       18       45 1        
      36       19       20 ar       
      37       19       46 1        
      38       20       21 1        
      39       21       22 2        
      40       21       23 am       
      41       23       24 1        
      42       23       47 1        
      43       24       25 1        
      44       24       48 1        
      45       24       49 1        
      46       25       29 1        
      47       25       26 2        
      48       26       27 1        
      49       26       50 1        
      50       27       28 2        
      51       27       51 1        
      52       28       29 1        
      53       28       52 1        

