#        1GCZ_R01_S0001_C0000_L00017_S0001_C0016_G0010_E0001.mol2
#        Tue Jun  6 14:18:46 2017
#        Descriptor:     29    30    13    12    10    14
#        Energy - RMSD - RMSD MassCentre:     -70.1276    999.9999    999.9999
#        Receptor:       1  Surface Point:     1  Conformer:     0
#        Ligand:        17  Surface Point:     1  Conformer:    16
#        BUDE Formal Charge: 0
#        ATOM Count: 52
#        Heavy ATOM Count: 29
@<TRIPOS>MOLECULE
ZINC61282001_1GCZ_R01_S0001_C0000_L00017_S0001_C0016_G0010_E0001
 52 53 0 0 0
SMALL
USER_CHARGES
@<TRIPOS>ATOM
       1 C1        10.8761    0.4556    4.4451 C.3       1 <0>        -0.1391 
       2 C2         9.7745    1.5077    4.5341 C.3       1 <0>        -0.1418 
       3 C3         9.0564    1.3729    5.8556 C.2       1 <0>         0.5169 
       4 O1         9.3999    0.5058    6.6574 O.2       1 <0>        -0.5335 
       5 N1         8.0516    2.1921    6.1526 N.am      1 <0>        -0.7285 
       6 C4         7.3526    2.0609    7.4389 C.3       1 <0>         0.1288 
       7 C5         6.4188    0.8755    7.3846 C.2       1 <0>         0.4630 
       8 O2         6.6124   -0.0713    8.0874 O.2       1 <0>        -0.4988 
       9 O3         5.3644    0.8854    6.5417 O.3       1 <0>        -0.3175 
      10 C6         4.5079   -0.2596    6.5253 C.3       1 <0>         0.0731 
      11 C7         5.3150   -1.4943    6.1343 C.3       1 <0>        -0.1692 
      12 C8         3.4006   -0.0444    5.5214 C.2       1 <0>         0.5202 
      13 O4         3.2278   -0.8545    4.6122 O.2       1 <0>        -0.4963 
      14 N2         2.6119    1.0219    5.6202 N.am      1 <0>        -0.6538 
      15 C9         1.5740    1.2250    4.6802 C.ar      1 <0>         0.2101 
      16 C10        1.6081    0.6200    3.4183 C.ar      1 <0>        -0.1321 
      17 C11        0.5843    0.8892    2.5021 C.ar      1 <0>        -0.0675 
      18 C12       -0.4622    1.7540    2.8468 C.ar      1 <0>        -0.1401 
      19 C13       -0.5110    2.3284    4.1225 C.ar      1 <0>        -0.0656 
      20 C14        0.5199    2.0751    5.0351 C.ar      1 <0>        -0.1718 
      21 C15        0.5801    2.6729    6.3877 C.2       1 <0>         0.5702 
      22 O5         1.5231    2.4126    7.1332 O.2       1 <0>        -0.5422 
      23 N3        -0.3857    3.4910    6.7963 N.am      1 <0>        -0.7214 
      24 C16       -0.3259    4.0846    8.1398 C.3       1 <0>         0.2043 
      25 C17        0.7207    5.1728    8.1620 C.2       1 <0>        -0.0464 
      26 C18        1.9492    5.0798    8.6891 C.2       1 <0>        -0.1782 
      27 C19        2.5308    6.4162    8.4312 C.2       1 <0>        -0.2183 
      28 C20        1.5645    7.0761    7.7869 C.2       1 <0>        -0.0240 
      29 O6         0.3747    6.3850    7.5695 O.3       1 <0>        -0.1712 
      30 H1        10.4346   -0.5370    4.5064 H         1 <0>         0.0628 
      31 H2        11.4021    0.5613    3.4986 H         1 <0>         0.0628 
      32 H3        11.5755    0.5935    5.2669 H         1 <0>         0.0640 
      33 H4         9.0665    1.3621    3.7208 H         1 <0>         0.0966 
      34 H5        10.2135    2.5005    4.4603 H         1 <0>         0.0966 
      35 H6         7.7686    2.9045    5.4948 H         1 <0>         0.4131 
      36 H7         8.0800    1.9125    8.2342 H         1 <0>         0.1171 
      37 H8         6.7794    2.9645    7.6349 H         1 <0>         0.1171 
      38 H9         4.0771   -0.4051    7.5137 H         1 <0>         0.1185 
      39 H10        5.7554   -1.3424    5.1511 H         1 <0>         0.0777 
      40 H11        6.1044   -1.6569    6.8649 H         1 <0>         0.0803 
      41 H12        4.6594   -2.3620    6.1085 H         1 <0>         0.0842 
      42 H13        2.7539    1.6871    6.3667 H         1 <0>         0.4245 
      43 H14        2.4189   -0.0424    3.1534 H         1 <0>         0.1486 
      44 H15        0.6094    0.4338    1.5231 H         1 <0>         0.1348 
      45 H16       -1.2402    1.9752    2.1311 H         1 <0>         0.1332 
      46 H17       -1.3402    2.9641    4.3959 H         1 <0>         0.1296 
      47 H18       -1.1597    3.7039    6.1833 H         1 <0>         0.4054 
      48 H19       -0.0661    3.3156    8.8642 H         1 <0>         0.1035 
      49 H20       -1.2958    4.5083    8.3918 H         1 <0>         0.0890 
      50 H21        2.4271    4.2486    9.1861 H         1 <0>         0.1520 
      51 H22        3.5140    6.7762    8.6957 H         1 <0>         0.1526 
      52 H23        1.6498    8.0959    7.4418 H         1 <0>         0.2068 
@<TRIPOS>BOND
       1        1        2 1        
       2        1       30 1        
       3        1       31 1        
       4        1       32 1        
       5        2        3 1        
       6        2       33 1        
       7        2       34 1        
       8        3        4 2        
       9        3        5 am       
      10        5        6 1        
      11        5       35 1        
      12        6        7 1        
      13        6       36 1        
      14        6       37 1        
      15        7        8 2        
      16        7        9 1        
      17        9       10 1        
      18       10       11 1        
      19       10       12 1        
      20       10       38 1        
      21       11       39 1        
      22       11       40 1        
      23       11       41 1        
      24       12       13 2        
      25       12       14 am       
      26       14       15 1        
      27       14       42 1        
      28       15       20 ar       
      29       15       16 ar       
      30       16       17 ar       
      31       16       43 1        
      32       17       18 ar       
      33       17       44 1        
      34       18       19 ar       
      35       18       45 1        
      36       19       20 ar       
      37       19       46 1        
      38       20       21 1        
      39       21       22 2        
      40       21       23 am       
      41       23       24 1        
      42       23       47 1        
      43       24       25 1        
      44       24       48 1        
      45       24       49 1        
      46       25       29 1        
      47       25       26 2        
      48       26       27 1        
      49       26       50 1        
      50       27       28 2        
      51       27       51 1        
      52       28       29 1        
      53       28       52 1        

