#        1GCZ_R01_S0001_C0000_L00017_S0001_C0017_G0010_E0001.mol2
#        Tue Jun  6 10:01:12 2017
#        Descriptor:     22     2    34    11     9    15
#        Energy - RMSD - RMSD MassCentre:     -70.1611    999.9999    999.9999
#        Receptor:       1  Surface Point:     1  Conformer:     0
#        Ligand:        17  Surface Point:     1  Conformer:    17
#        BUDE Formal Charge: 0
#        ATOM Count: 52
#        Heavy ATOM Count: 29
@<TRIPOS>MOLECULE
ZINC61282001_1GCZ_R01_S0001_C0000_L00017_S0001_C0017_G0010_E0001
 52 53 0 0 0
SMALL
USER_CHARGES
@<TRIPOS>ATOM
       1 C1        -2.1429    1.9658    8.5860 C.3       1 <0>        -0.1391 
       2 C2        -1.6586    1.5846    7.1900 C.3       1 <0>        -0.1418 
       3 C3        -0.5471    2.5172    6.7719 C.2       1 <0>         0.5169 
       4 O1        -0.1758    3.4117    7.5301 O.2       1 <0>        -0.5335 
       5 N1         0.0308    2.3715    5.5828 N.am      1 <0>        -0.7285 
       6 C4        -0.4131    1.3026    4.6767 C.3       1 <0>         0.1288 
       7 C5         0.1418   -0.0197    5.1497 C.2       1 <0>         0.4630 
       8 O2        -0.5978   -0.8753    5.5356 O.2       1 <0>        -0.4988 
       9 O3         1.4743   -0.2356    5.1365 O.3       1 <0>        -0.3175 
      10 C6         1.9530   -1.5031    5.5937 C.3       1 <0>         0.0731 
      11 C7         1.5331   -1.7129    7.0457 C.3       1 <0>        -0.1692 
      12 C8         3.4596   -1.5358    5.4968 C.2       1 <0>         0.5202 
      13 O4         4.0141   -2.3958    4.8143 O.2       1 <0>        -0.4963 
      14 N2         4.1873   -0.6344    6.1499 N.am      1 <0>        -0.6538 
      15 C9         5.5991   -0.6639    6.0602 C.ar      1 <0>         0.2101 
      16 C10        6.2795   -1.8308    5.6928 C.ar      1 <0>        -0.1321 
      17 C11        7.6793   -1.8275    5.6655 C.ar      1 <0>        -0.0675 
      18 C12        8.3891   -0.6677    6.0018 C.ar      1 <0>        -0.1401 
      19 C13        7.7039    0.5070    6.3338 C.ar      1 <0>        -0.0656 
      20 C14        6.3047    0.5025    6.3787 C.ar      1 <0>        -0.1718 
      21 C15        5.4949    1.6800    6.7638 C.2       1 <0>         0.5702 
      22 O5         4.2678    1.5997    6.7910 O.2       1 <0>        -0.5422 
      23 N3         6.0945    2.8243    7.0801 N.am      1 <0>        -0.7214 
      24 C16        5.2902    3.9938    7.4624 C.3       1 <0>         0.2043 
      25 C17        4.7470    3.7955    8.8573 C.2       1 <0>        -0.0464 
      26 C18        4.9583    2.7333    9.6464 C.2       1 <0>        -0.1782 
      27 C19        4.2045    3.0685   10.8753 C.2       1 <0>        -0.2183 
      28 C20        3.6822    4.2717   10.6222 C.2       1 <0>        -0.0240 
      29 O6         3.9579    4.8214    9.3723 O.3       1 <0>        -0.1712 
      30 H1        -2.5248    2.9845    8.5711 H         1 <0>         0.0628 
      31 H2        -2.9347    1.2854    8.8927 H         1 <0>         0.0628 
      32 H3        -1.3142    1.8987    9.2876 H         1 <0>         0.0640 
      33 H4        -2.4831    1.6649    6.4848 H         1 <0>         0.0966 
      34 H5        -1.2879    0.5616    7.2009 H         1 <0>         0.0966 
      35 H6         0.7743    2.9948    5.3021 H         1 <0>         0.4131 
      36 H7        -1.5001    1.2582    4.6721 H         1 <0>         0.1171 
      37 H8        -0.0537    1.5068    3.6703 H         1 <0>         0.1171 
      38 H9         1.5332   -2.2944    4.9761 H         1 <0>         0.1185 
      39 H10        1.9431   -0.9141    7.6602 H         1 <0>         0.0777 
      40 H11        0.4472   -1.7026    7.1136 H         1 <0>         0.0803 
      41 H12        1.9099   -2.6712    7.3968 H         1 <0>         0.0842 
      42 H13        3.7320    0.0716    6.7104 H         1 <0>         0.4245 
      43 H14        5.7297   -2.7250    5.4389 H         1 <0>         0.1486 
      44 H15        8.2110   -2.7270    5.3927 H         1 <0>         0.1348 
      45 H16        9.4691   -0.6736    5.9988 H         1 <0>         0.1332 
      46 H17        8.2558    1.4087    6.5549 H         1 <0>         0.1296 
      47 H18        7.1022    2.8891    7.0572 H         1 <0>         0.4054 
      48 H19        4.4643    4.1093    6.7638 H         1 <0>         0.1035 
      49 H20        5.9134    4.8852    7.4387 H         1 <0>         0.0890 
      50 H21        5.5326    1.8377    9.4609 H         1 <0>         0.1520 
      51 H22        4.1038    2.4802   11.7752 H         1 <0>         0.1526 
      52 H23        3.0644    4.8245   11.3142 H         1 <0>         0.2068 
@<TRIPOS>BOND
       1        1        2 1        
       2        1       30 1        
       3        1       31 1        
       4        1       32 1        
       5        2        3 1        
       6        2       33 1        
       7        2       34 1        
       8        3        4 2        
       9        3        5 am       
      10        5        6 1        
      11        5       35 1        
      12        6        7 1        
      13        6       36 1        
      14        6       37 1        
      15        7        8 2        
      16        7        9 1        
      17        9       10 1        
      18       10       11 1        
      19       10       12 1        
      20       10       38 1        
      21       11       39 1        
      22       11       40 1        
      23       11       41 1        
      24       12       13 2        
      25       12       14 am       
      26       14       15 1        
      27       14       42 1        
      28       15       20 ar       
      29       15       16 ar       
      30       16       17 ar       
      31       16       43 1        
      32       17       18 ar       
      33       17       44 1        
      34       18       19 ar       
      35       18       45 1        
      36       19       20 ar       
      37       19       46 1        
      38       20       21 1        
      39       21       22 2        
      40       21       23 am       
      41       23       24 1        
      42       23       47 1        
      43       24       25 1        
      44       24       48 1        
      45       24       49 1        
      46       25       29 1        
      47       25       26 2        
      48       26       27 1        
      49       26       50 1        
      50       27       28 2        
      51       27       51 1        
      52       28       29 1        
      53       28       52 1        

