#        1GCZ_R01_S0001_C0000_L00017_S0001_C0017_G0010_E0001.mol2
#        Tue Jun  6 14:18:48 2017
#        Descriptor:     21     3    34    11     9    15
#        Energy - RMSD - RMSD MassCentre:     -67.6058    999.9999    999.9999
#        Receptor:       1  Surface Point:     1  Conformer:     0
#        Ligand:        17  Surface Point:     1  Conformer:    17
#        BUDE Formal Charge: 0
#        ATOM Count: 52
#        Heavy ATOM Count: 29
@<TRIPOS>MOLECULE
ZINC61282001_1GCZ_R01_S0001_C0000_L00017_S0001_C0017_G0010_E0001
 52 53 0 0 0
SMALL
USER_CHARGES
@<TRIPOS>ATOM
       1 C1        -2.1764    2.5935    7.7505 C.3       1 <0>        -0.1391 
       2 C2        -1.5879    1.8981    6.5263 C.3       1 <0>        -0.1418 
       3 C3        -0.3652    2.6515    6.0599 C.2       1 <0>         0.5169 
       4 O1         0.0021    3.6607    6.6594 O.2       1 <0>        -0.5335 
       5 N1         0.3150    2.2235    5.0001 N.am      1 <0>        -0.7285 
       6 C4        -0.1241    1.0175    4.2837 C.3       1 <0>         0.1288 
       7 C5         0.2667   -0.2075    5.0755 C.2       1 <0>         0.4630 
       8 O2        -0.5776   -0.9154    5.5380 O.2       1 <0>        -0.4988 
       9 O3         1.5707   -0.5032    5.2608 O.3       1 <0>        -0.3175 
      10 C6         1.8922   -1.6733    6.0173 C.3       1 <0>         0.0731 
      11 C7         1.3121   -1.5467    7.4230 C.3       1 <0>        -0.1692 
      12 C8         3.3928   -1.8187    6.1044 C.2       1 <0>         0.5202 
      13 O4         3.9386   -2.8355    5.6789 O.2       1 <0>        -0.4963 
      14 N2         4.1246   -0.8468    6.6416 N.am      1 <0>        -0.6538 
      15 C9         5.5307   -0.9816    6.7240 C.ar      1 <0>         0.2101 
      16 C10        6.1436   -2.2395    6.6816 C.ar      1 <0>        -0.1321 
      17 C11        7.5342   -2.3284    6.8168 C.ar      1 <0>        -0.0675 
      18 C12        8.3021   -1.1699    6.9915 C.ar      1 <0>        -0.1401 
      19 C13        7.6885    0.0884    6.9974 C.ar      1 <0>        -0.0656 
      20 C14        6.2966    0.1798    6.8796 C.ar      1 <0>        -0.1718 
      21 C15        5.5545    1.4597    6.9221 C.2       1 <0>         0.5702 
      22 O5         4.3285    1.4629    6.8225 O.2       1 <0>        -0.5422 
      23 N3         6.2137    2.6056    7.0678 N.am      1 <0>        -0.7214 
      24 C16        5.4766    3.8768    7.1098 C.3       1 <0>         0.2043 
      25 C17        4.7809    4.0102    8.4434 C.2       1 <0>        -0.0464 
      26 C18        4.8213    3.1267    9.4501 C.2       1 <0>        -0.1782 
      27 C19        3.9786    3.7587   10.4898 C.2       1 <0>        -0.2183 
      28 C20        3.5880    4.9117    9.9398 C.2       1 <0>        -0.0240 
      29 O6         4.0336    5.1682    8.6452 O.3       1 <0>        -0.1712 
      30 H1        -2.4675    3.6079    7.4857 H         1 <0>         0.0628 
      31 H2        -3.0497    2.0431    8.0946 H         1 <0>         0.0628 
      32 H3        -1.4312    2.6244    8.5424 H         1 <0>         0.0640 
      33 H4        -2.3276    1.8791    5.7287 H         1 <0>         0.0966 
      34 H5        -1.3080    0.8794    6.7868 H         1 <0>         0.0966 
      35 H6         1.1329    2.7267    4.6873 H         1 <0>         0.4131 
      36 H7        -1.2050    1.0404    4.1621 H         1 <0>         0.1171 
      37 H8         0.3507    0.9829    3.3054 H         1 <0>         0.1171 
      38 H9         1.4714   -2.5493    5.5281 H         1 <0>         0.1185 
      39 H10        1.7241   -0.6635    7.9066 H         1 <0>         0.0777 
      40 H11        0.2297   -1.4553    7.3610 H         1 <0>         0.0803 
      41 H12        1.5693   -2.4312    8.0019 H         1 <0>         0.0842 
      42 H13        3.6764   -0.0120    6.9910 H         1 <0>         0.4245 
      43 H14        5.5486   -3.1313    6.5519 H         1 <0>         0.1486 
      44 H15        8.0129   -3.2962    6.7950 H         1 <0>         0.1348 
      45 H16        9.3725   -1.2430    7.1151 H         1 <0>         0.1332 
      46 H17        8.2895    0.9805    7.0940 H         1 <0>         0.1296 
      47 H18        7.2204    2.6018    7.1493 H         1 <0>         0.4054 
      48 H19        4.7379    3.8936    6.3113 H         1 <0>         0.1035 
      49 H20        6.1721    4.7030    6.9787 H         1 <0>         0.0890 
      50 H21        5.3337    2.1784    9.5174 H         1 <0>         0.1520 
      51 H22        3.7386    3.3802   11.4723 H         1 <0>         0.1526 
      52 H23        2.9525    5.6348   10.4293 H         1 <0>         0.2068 
@<TRIPOS>BOND
       1        1        2 1        
       2        1       30 1        
       3        1       31 1        
       4        1       32 1        
       5        2        3 1        
       6        2       33 1        
       7        2       34 1        
       8        3        4 2        
       9        3        5 am       
      10        5        6 1        
      11        5       35 1        
      12        6        7 1        
      13        6       36 1        
      14        6       37 1        
      15        7        8 2        
      16        7        9 1        
      17        9       10 1        
      18       10       11 1        
      19       10       12 1        
      20       10       38 1        
      21       11       39 1        
      22       11       40 1        
      23       11       41 1        
      24       12       13 2        
      25       12       14 am       
      26       14       15 1        
      27       14       42 1        
      28       15       20 ar       
      29       15       16 ar       
      30       16       17 ar       
      31       16       43 1        
      32       17       18 ar       
      33       17       44 1        
      34       18       19 ar       
      35       18       45 1        
      36       19       20 ar       
      37       19       46 1        
      38       20       21 1        
      39       21       22 2        
      40       21       23 am       
      41       23       24 1        
      42       23       47 1        
      43       24       25 1        
      44       24       48 1        
      45       24       49 1        
      46       25       29 1        
      47       25       26 2        
      48       26       27 1        
      49       26       50 1        
      50       27       28 2        
      51       27       51 1        
      52       28       29 1        
      53       28       52 1        

