#        1GCZ_R01_S0001_C0000_L00017_S0001_C0018_G0010_E0001.mol2
#        Tue Jun  6 10:01:13 2017
#        Descriptor:      8     2    14     9     7    14
#        Energy - RMSD - RMSD MassCentre:     -71.7443    999.9999    999.9999
#        Receptor:       1  Surface Point:     1  Conformer:     0
#        Ligand:        17  Surface Point:     1  Conformer:    18
#        BUDE Formal Charge: 0
#        ATOM Count: 52
#        Heavy ATOM Count: 29
@<TRIPOS>MOLECULE
ZINC61282001_1GCZ_R01_S0001_C0000_L00017_S0001_C0018_G0010_E0001
 52 53 0 0 0
SMALL
USER_CHARGES
@<TRIPOS>ATOM
       1 C1         5.9419   -2.7155    8.2792 C.3       1 <0>        -0.1391 
       2 C2         5.8715   -1.9461    6.9631 C.3       1 <0>        -0.1418 
       3 C3         4.6736   -2.4137    6.1714 C.2       1 <0>         0.5169 
       4 O1         3.7819   -1.6192    5.8771 O.2       1 <0>        -0.5335 
       5 N1         4.5828   -3.6851    5.7921 N.am      1 <0>        -0.7285 
       6 C4         3.4167   -4.1402    5.0214 C.3       1 <0>         0.1288 
       7 C5         2.2321   -4.2925    5.9453 C.2       1 <0>         0.4630 
       8 O2         1.7597   -5.3728    6.1394 O.2       1 <0>        -0.4988 
       9 O3         1.7064   -3.2075    6.5526 O.3       1 <0>        -0.3175 
      10 C6         0.5851   -3.4010    7.4187 C.3       1 <0>         0.0731 
      11 C7        -0.5697   -4.0103    6.6289 C.3       1 <0>        -0.1692 
      12 C8         0.1563   -2.0707    7.9902 C.2       1 <0>         0.5202 
      13 O4         0.1374   -1.9012    9.2083 O.2       1 <0>        -0.4963 
      14 N2        -0.2014   -1.0818    7.1760 N.am      1 <0>        -0.6538 
      15 C9        -0.6036    0.1652    7.7100 C.ar      1 <0>         0.2101 
      16 C10       -1.0655    0.2767    9.0268 C.ar      1 <0>        -0.1321 
      17 C11       -1.5000    1.5218    9.4968 C.ar      1 <0>        -0.0675 
      18 C12       -1.4711    2.6427    8.6573 C.ar      1 <0>        -0.1401 
      19 C13       -0.9749    2.5338    7.3528 C.ar      1 <0>        -0.0656 
      20 C14       -0.5556    1.2870    6.8739 C.ar      1 <0>        -0.1718 
      21 C15       -0.0610    1.0639    5.4969 C.2       1 <0>         0.5702 
      22 O5         0.2812   -0.0630    5.1418 O.2       1 <0>        -0.5422 
      23 N3         0.0132    2.0819    4.6443 N.am      1 <0>        -0.7214 
      24 C16        0.5046    1.8603    3.2767 C.3       1 <0>         0.2043 
      25 C17       -0.5576    1.1525    2.4698 C.2       1 <0>        -0.0464 
      26 C18       -1.7691    0.7824    2.9065 C.2       1 <0>        -0.1782 
      27 C19       -2.3781    0.1453    1.7174 C.2       1 <0>        -0.2183 
      28 C20       -1.4405    0.2512    0.7718 C.2       1 <0>        -0.0240 
      29 O6        -0.2470    0.8665    1.1424 O.3       1 <0>        -0.1712 
      30 H1         6.0495   -3.7782    8.0719 H         1 <0>         0.0628 
      31 H2         6.7974   -2.3694    8.8555 H         1 <0>         0.0628 
      32 H3         5.0291   -2.5466    8.8466 H         1 <0>         0.0640 
      33 H4         6.7777   -2.1256    6.3885 H         1 <0>         0.0966 
      34 H5         5.7765   -0.8821    7.1691 H         1 <0>         0.0966 
      35 H6         5.3144   -4.3384    6.0333 H         1 <0>         0.4131 
      36 H7         3.1829   -3.4090    4.2505 H         1 <0>         0.1171 
      37 H8         3.6394   -5.0987    4.5573 H         1 <0>         0.1171 
      38 H9         0.8638   -4.0706    8.2298 H         1 <0>         0.1185 
      39 H10       -0.8392   -3.3458    5.8107 H         1 <0>         0.0777 
      40 H11       -0.2652   -4.9749    6.2283 H         1 <0>         0.0803 
      41 H12       -1.4268   -4.1439    7.2857 H         1 <0>         0.0842 
      42 H13       -0.1860   -1.2211    6.1759 H         1 <0>         0.4245 
      43 H14       -1.0914   -0.5903    9.6702 H         1 <0>         0.1486 
      44 H15       -1.8669    1.6131   10.5084 H         1 <0>         0.1348 
      45 H16       -1.8251    3.5977    9.0163 H         1 <0>         0.1332 
      46 H17       -0.9192    3.4092    6.7226 H         1 <0>         0.1296 
      47 H18       -0.2680    3.0068    4.9370 H         1 <0>         0.4054 
      48 H19        1.4037    1.2487    3.3096 H         1 <0>         0.1035 
      49 H20        0.7336    2.8182    2.8146 H         1 <0>         0.0890 
      50 H21       -2.2201    0.9047    3.8802 H         1 <0>         0.1520 
      51 H22       -3.3589   -0.2980    1.6291 H         1 <0>         0.1526 
      52 H23       -1.5512   -0.1143   -0.2384 H         1 <0>         0.2068 
@<TRIPOS>BOND
       1        1        2 1        
       2        1       30 1        
       3        1       31 1        
       4        1       32 1        
       5        2        3 1        
       6        2       33 1        
       7        2       34 1        
       8        3        4 2        
       9        3        5 am       
      10        5        6 1        
      11        5       35 1        
      12        6        7 1        
      13        6       36 1        
      14        6       37 1        
      15        7        8 2        
      16        7        9 1        
      17        9       10 1        
      18       10       11 1        
      19       10       12 1        
      20       10       38 1        
      21       11       39 1        
      22       11       40 1        
      23       11       41 1        
      24       12       13 2        
      25       12       14 am       
      26       14       15 1        
      27       14       42 1        
      28       15       20 ar       
      29       15       16 ar       
      30       16       17 ar       
      31       16       43 1        
      32       17       18 ar       
      33       17       44 1        
      34       18       19 ar       
      35       18       45 1        
      36       19       20 ar       
      37       19       46 1        
      38       20       21 1        
      39       21       22 2        
      40       21       23 am       
      41       23       24 1        
      42       23       47 1        
      43       24       25 1        
      44       24       48 1        
      45       24       49 1        
      46       25       29 1        
      47       25       26 2        
      48       26       27 1        
      49       26       50 1        
      50       27       28 2        
      51       27       51 1        
      52       28       29 1        
      53       28       52 1        

