#        1GCZ_R01_S0001_C0000_L00017_S0001_C0018_G0010_E0001.mol2
#        Tue Jun  6 14:18:50 2017
#        Descriptor:     29    16    29    10     7    14
#        Energy - RMSD - RMSD MassCentre:     -68.7209    999.9999    999.9999
#        Receptor:       1  Surface Point:     1  Conformer:     0
#        Ligand:        17  Surface Point:     1  Conformer:    18
#        BUDE Formal Charge: 0
#        ATOM Count: 52
#        Heavy ATOM Count: 29
@<TRIPOS>MOLECULE
ZINC61282001_1GCZ_R01_S0001_C0000_L00017_S0001_C0018_G0010_E0001
 52 53 0 0 0
SMALL
USER_CHARGES
@<TRIPOS>ATOM
       1 C1         6.8107   -3.9263    6.9240 C.3       1 <0>        -0.1391 
       2 C2         6.3872   -3.4672    5.5316 C.3       1 <0>        -0.1418 
       3 C3         4.8904   -3.6072    5.3902 C.2       1 <0>         0.5169 
       4 O1         4.1977   -2.6158    5.1655 O.2       1 <0>        -0.5335 
       5 N1         4.3206   -4.8030    5.5086 N.am      1 <0>        -0.7285 
       6 C4         2.8634   -4.9392    5.3709 C.3       1 <0>         0.1288 
       7 C5         2.1918   -4.4532    6.6329 C.2       1 <0>         0.4630 
       8 O2         1.5857   -5.2191    7.3213 O.2       1 <0>        -0.4988 
       9 O3         2.2764   -3.1524    6.9840 O.3       1 <0>        -0.3175 
      10 C6         1.6244   -2.7387    8.1876 C.3       1 <0>         0.0731 
      11 C7         0.1289   -3.0228    8.0805 C.3       1 <0>        -0.1692 
      12 C8         1.8411   -1.2585    8.3931 C.2       1 <0>         0.5202 
      13 O4         2.3885   -0.8527    9.4171 O.2       1 <0>        -0.4963 
      14 N2         1.4397   -0.3931    7.4665 N.am      1 <0>        -0.6538 
      15 C9         1.6419    0.9942    7.6578 C.ar      1 <0>         0.2101 
      16 C10        1.8326    1.5311    8.9365 C.ar      1 <0>        -0.1321 
      17 C11        1.9791    2.9158    9.0828 C.ar      1 <0>        -0.0675 
      18 C12        1.9360    3.7528    7.9605 C.ar      1 <0>        -0.1401 
      19 C13        1.7811    3.2080    6.6802 C.ar      1 <0>        -0.0656 
      20 C14        1.6171    1.8257    6.5318 C.ar      1 <0>        -0.1718 
      21 C15        1.4003    1.1633    5.2261 C.2       1 <0>         0.5702 
      22 O5         1.2535   -0.0568    5.1728 O.2       1 <0>        -0.5422 
      23 N3         1.3643    1.8877    4.1113 N.am      1 <0>        -0.7214 
      24 C16        1.1490    1.2297    2.8145 C.3       1 <0>         0.2043 
      25 C17       -0.2990    0.8185    2.6941 C.2       1 <0>        -0.0464 
      26 C18       -1.2583    1.0190    3.6079 C.2       1 <0>        -0.1782 
      27 C19       -2.4584    0.4275    2.9752 C.2       1 <0>        -0.2183 
      28 C20       -2.0221   -0.0137    1.7922 C.2       1 <0>        -0.0240 
      29 O6        -0.6704    0.1772    1.5146 O.3       1 <0>        -0.1712 
      30 H1         6.5403   -4.9716    7.0583 H         1 <0>         0.0628 
      31 H2         7.8876   -3.8130    7.0305 H         1 <0>         0.0628 
      32 H3         6.3057   -3.3211    7.6739 H         1 <0>         0.0640 
      33 H4         6.8808   -4.0809    4.7810 H         1 <0>         0.0966 
      34 H5         6.6684   -2.4256    5.3915 H         1 <0>         0.0966 
      35 H6         4.8883   -5.6177    5.6932 H         1 <0>         0.4131 
      36 H7         2.5212   -4.3446    4.5266 H         1 <0>         0.1171 
      37 H8         2.6102   -5.9843    5.2055 H         1 <0>         0.1171 
      38 H9         2.0386   -3.2859    9.0318 H         1 <0>         0.1185 
      39 H10       -0.2817   -2.4850    7.2286 H         1 <0>         0.0777 
      40 H11       -0.0279   -4.0909    7.9458 H         1 <0>         0.0803 
      41 H12       -0.3681   -2.6947    8.9911 H         1 <0>         0.0842 
      42 H13        0.9901   -0.7263    6.6258 H         1 <0>         0.4245 
      43 H14        1.8603    0.8839    9.8005 H         1 <0>         0.1486 
      44 H15        2.1165    3.3379   10.0673 H         1 <0>         0.1348 
      45 H16        2.0297    4.8222    8.0783 H         1 <0>         0.1332 
      46 H17        1.7870    3.8546    5.8151 H         1 <0>         0.1296 
      47 H18        1.4850    2.8895    4.1562 H         1 <0>         0.4054 
      48 H19        1.7838    0.3489    2.7455 H         1 <0>         0.1035 
      49 H20        1.3982    1.9208    2.0121 H         1 <0>         0.0890 
      50 H21       -1.2018    1.4927    4.5768 H         1 <0>         0.1520 
      51 H22       -3.4606    0.3705    3.3732 H         1 <0>         0.1526 
      52 H23       -2.6437   -0.5075    1.0600 H         1 <0>         0.2068 
@<TRIPOS>BOND
       1        1        2 1        
       2        1       30 1        
       3        1       31 1        
       4        1       32 1        
       5        2        3 1        
       6        2       33 1        
       7        2       34 1        
       8        3        4 2        
       9        3        5 am       
      10        5        6 1        
      11        5       35 1        
      12        6        7 1        
      13        6       36 1        
      14        6       37 1        
      15        7        8 2        
      16        7        9 1        
      17        9       10 1        
      18       10       11 1        
      19       10       12 1        
      20       10       38 1        
      21       11       39 1        
      22       11       40 1        
      23       11       41 1        
      24       12       13 2        
      25       12       14 am       
      26       14       15 1        
      27       14       42 1        
      28       15       20 ar       
      29       15       16 ar       
      30       16       17 ar       
      31       16       43 1        
      32       17       18 ar       
      33       17       44 1        
      34       18       19 ar       
      35       18       45 1        
      36       19       20 ar       
      37       19       46 1        
      38       20       21 1        
      39       21       22 2        
      40       21       23 am       
      41       23       24 1        
      42       23       47 1        
      43       24       25 1        
      44       24       48 1        
      45       24       49 1        
      46       25       29 1        
      47       25       26 2        
      48       26       27 1        
      49       26       50 1        
      50       27       28 2        
      51       27       51 1        
      52       28       29 1        
      53       28       52 1        

