#        1GCZ_R01_S0001_C0000_L00017_S0001_C0019_G0010_E0001.mol2
#        Tue Jun  6 14:18:52 2017
#        Descriptor:     14     3     9    10     6    14
#        Energy - RMSD - RMSD MassCentre:     -70.5730    999.9999    999.9999
#        Receptor:       1  Surface Point:     1  Conformer:     0
#        Ligand:        17  Surface Point:     1  Conformer:    19
#        BUDE Formal Charge: 0
#        ATOM Count: 52
#        Heavy ATOM Count: 29
@<TRIPOS>MOLECULE
ZINC61282001_1GCZ_R01_S0001_C0000_L00017_S0001_C0019_G0010_E0001
 52 53 0 0 0
SMALL
USER_CHARGES
@<TRIPOS>ATOM
       1 C1        -0.7338   -7.3719    5.9337 C.3       1 <0>        -0.1391 
       2 C2        -0.3664   -7.0388    7.3768 C.3       1 <0>        -0.1418 
       3 C3         0.1156   -5.6099    7.4556 C.2       1 <0>         0.5169 
       4 O1         0.1604   -4.9182    6.4395 O.2       1 <0>        -0.5335 
       5 N1         0.4922   -5.0990    8.6245 N.am      1 <0>        -0.7285 
       6 C4         0.9614   -3.7081    8.7011 C.3       1 <0>         0.1288 
       7 C5         2.3716   -3.6235    8.1679 C.2       1 <0>         0.4630 
       8 O2         3.2700   -3.3249    8.8971 O.2       1 <0>        -0.4988 
       9 O3         2.6175   -3.8855    6.8666 O.3       1 <0>        -0.3175 
      10 C6         3.9686   -3.7927    6.4076 C.3       1 <0>         0.0731 
      11 C7         4.8525   -4.7236    7.2327 C.3       1 <0>        -0.1692 
      12 C8         4.4549   -2.3713    6.5611 C.2       1 <0>         0.5202 
      13 O4         5.4684   -2.1347    7.2164 O.2       1 <0>        -0.4963 
      14 N2         3.7866   -1.3747    5.9875 N.am      1 <0>        -0.6538 
      15 C9         4.2409   -0.0423    6.1306 C.ar      1 <0>         0.2101 
      16 C10        5.5570    0.2391    6.5156 C.ar      1 <0>        -0.1321 
      17 C11        5.9484    1.5716    6.6929 C.ar      1 <0>        -0.0675 
      18 C12        5.0316    2.6102    6.4861 C.ar      1 <0>        -0.1401 
      19 C13        3.7267    2.3257    6.0667 C.ar      1 <0>        -0.0656 
      20 C14        3.3271    0.9939    5.9048 C.ar      1 <0>        -0.1718 
      21 C15        1.9579    0.5929    5.5107 C.2       1 <0>         0.5702 
      22 O5         1.6750   -0.5988    5.3977 O.2       1 <0>        -0.5422 
      23 N3         1.0343    1.5215    5.2791 N.am      1 <0>        -0.7214 
      24 C16       -0.3256    1.1233    4.8877 C.3       1 <0>         0.2043 
      25 C17       -0.3180    0.6529    3.4529 C.2       1 <0>        -0.0464 
      26 C18        0.7494    0.5902    2.6453 C.2       1 <0>        -0.1782 
      27 C19        0.1874    0.0650    1.3807 C.2       1 <0>        -0.2183 
      28 C20       -1.1103   -0.1088    1.6454 C.2       1 <0>        -0.0240 
      29 O6        -1.5383    0.2375    2.9249 O.3       1 <0>        -0.1712 
      30 H1         0.1450   -7.2612    5.3016 H         1 <0>         0.0628 
      31 H2        -1.0935   -8.3972    5.8792 H         1 <0>         0.0628 
      32 H3        -1.5138   -6.6944    5.5931 H         1 <0>         0.0640 
      33 H4         0.4237   -7.7065    7.7141 H         1 <0>         0.0966 
      34 H5        -1.2414   -7.1612    8.0119 H         1 <0>         0.0966 
      35 H6         0.4558   -5.6661    9.4595 H         1 <0>         0.4131 
      36 H7         0.3103   -3.0717    8.1055 H         1 <0>         0.1171 
      37 H8         0.9454   -3.3758    9.7370 H         1 <0>         0.1171 
      38 H9         4.0167   -4.0804    5.3594 H         1 <0>         0.1185 
      39 H10        4.7938   -4.4426    8.2821 H         1 <0>         0.0777 
      40 H11        4.5104   -5.7491    7.1114 H         1 <0>         0.0803 
      41 H12        5.8823   -4.6415    6.8917 H         1 <0>         0.0842 
      42 H13        2.9543   -1.5690    5.4495 H         1 <0>         0.4245 
      43 H14        6.2604   -0.5640    6.6792 H         1 <0>         0.1486 
      44 H15        6.9595    1.7956    6.9995 H         1 <0>         0.1348 
      45 H16        5.3308    3.6361    6.6428 H         1 <0>         0.1332 
      46 H17        3.0355    3.1323    5.8718 H         1 <0>         0.1296 
      47 H18        1.2676    2.4997    5.3722 H         1 <0>         0.4054 
      48 H19       -0.9950    1.9751    4.9873 H         1 <0>         0.1035 
      49 H20       -0.6662    0.3162    5.5328 H         1 <0>         0.0890 
      50 H21        1.7793    0.8508    2.8393 H         1 <0>         0.1520 
      51 H22        0.7067   -0.1391    0.4560 H         1 <0>         0.1526 
      52 H23       -1.8310   -0.4857    0.9349 H         1 <0>         0.2068 
@<TRIPOS>BOND
       1        1        2 1        
       2        1       30 1        
       3        1       31 1        
       4        1       32 1        
       5        2        3 1        
       6        2       33 1        
       7        2       34 1        
       8        3        4 2        
       9        3        5 am       
      10        5        6 1        
      11        5       35 1        
      12        6        7 1        
      13        6       36 1        
      14        6       37 1        
      15        7        8 2        
      16        7        9 1        
      17        9       10 1        
      18       10       11 1        
      19       10       12 1        
      20       10       38 1        
      21       11       39 1        
      22       11       40 1        
      23       11       41 1        
      24       12       13 2        
      25       12       14 am       
      26       14       15 1        
      27       14       42 1        
      28       15       20 ar       
      29       15       16 ar       
      30       16       17 ar       
      31       16       43 1        
      32       17       18 ar       
      33       17       44 1        
      34       18       19 ar       
      35       18       45 1        
      36       19       20 ar       
      37       19       46 1        
      38       20       21 1        
      39       21       22 2        
      40       21       23 am       
      41       23       24 1        
      42       23       47 1        
      43       24       25 1        
      44       24       48 1        
      45       24       49 1        
      46       25       29 1        
      47       25       26 2        
      48       26       27 1        
      49       26       50 1        
      50       27       28 2        
      51       27       51 1        
      52       28       29 1        
      53       28       52 1        

