#        1GCZ_R01_S0001_C0000_L00017_S0001_C0020_G0010_E0001.mol2
#        Tue Jun  6 10:01:15 2017
#        Descriptor:     20     1    36    10     9    14
#        Energy - RMSD - RMSD MassCentre:     -58.5574    999.9999    999.9999
#        Receptor:       1  Surface Point:     1  Conformer:     0
#        Ligand:        17  Surface Point:     1  Conformer:    20
#        BUDE Formal Charge: 0
#        ATOM Count: 52
#        Heavy ATOM Count: 29
@<TRIPOS>MOLECULE
ZINC61282001_1GCZ_R01_S0001_C0000_L00017_S0001_C0020_G0010_E0001
 52 53 0 0 0
SMALL
USER_CHARGES
@<TRIPOS>ATOM
       1 C1        -0.6086    0.6083    0.9219 C.3       1 <0>        -0.1391 
       2 C2        -1.8484    0.0163    1.5860 C.3       1 <0>        -0.1418 
       3 C3        -1.7965    0.2793    3.0720 C.2       1 <0>         0.5169 
       4 O1        -0.8451    0.8901    3.5564 O.2       1 <0>        -0.5335 
       5 N1        -2.7802   -0.1497    3.8576 N.am      1 <0>        -0.7285 
       6 C4        -2.7297    0.1064    5.3042 C.3       1 <0>         0.1288 
       7 C5        -1.7501   -0.8448    5.9489 C.2       1 <0>         0.4630 
       8 O2        -2.1369   -1.6669    6.7251 O.2       1 <0>        -0.4988 
       9 O3        -0.4364   -0.7665    5.6481 O.3       1 <0>        -0.3175 
      10 C6         0.4533   -1.6883    6.2835 C.3       1 <0>         0.0731 
      11 C7         0.3826   -1.5040    7.7967 C.3       1 <0>        -0.1692 
      12 C8         1.8644   -1.4311    5.8114 C.2       1 <0>         0.5202 
      13 O4         2.5023   -2.3269    5.2607 O.2       1 <0>        -0.4963 
      14 N2         2.4178   -0.2352    5.9915 N.am      1 <0>        -0.6538 
      15 C9         3.7400    0.0073    5.5498 C.ar      1 <0>         0.2101 
      16 C10        4.3508   -0.8177    4.5979 C.ar      1 <0>        -0.1321 
      17 C11        5.6779   -0.5694    4.2275 C.ar      1 <0>        -0.0675 
      18 C12        6.3846    0.4938    4.8037 C.ar      1 <0>        -0.1401 
      19 C13        5.7584    1.3377    5.7286 C.ar      1 <0>        -0.0656 
      20 C14        4.4371    1.0822    6.1140 C.ar      1 <0>        -0.1718 
      21 C15        3.7074    1.8888    7.1179 C.2       1 <0>         0.5702 
      22 O5         2.5496    1.5990    7.4153 O.2       1 <0>        -0.5422 
      23 N3         4.3041    2.9264    7.6978 N.am      1 <0>        -0.7214 
      24 C16        3.5794    3.7274    8.6948 C.3       1 <0>         0.2043 
      25 C17        4.5695    4.4890    9.5432 C.2       1 <0>        -0.0464 
      26 C18        4.8528    5.7955    9.4501 C.2       1 <0>        -0.1782 
      27 C19        5.8706    5.9976   10.5054 C.2       1 <0>        -0.2183 
      28 C20        6.0158    4.7899   11.0574 C.2       1 <0>        -0.0240 
      29 O6         5.2445    3.7616   10.5208 O.3       1 <0>        -0.1712 
      30 H1         0.2819    0.1368    1.3323 H         1 <0>         0.0628 
      31 H2        -0.6525    0.4303   -0.1505 H         1 <0>         0.0628 
      32 H3        -0.5729    1.6790    1.1115 H         1 <0>         0.0640 
      33 H4        -1.8778   -1.0568    1.4092 H         1 <0>         0.0966 
      34 H5        -2.7403    0.4781    1.1675 H         1 <0>         0.0966 
      35 H6        -3.5620   -0.6514    3.4609 H         1 <0>         0.4131 
      36 H7        -2.4092    1.1309    5.4808 H         1 <0>         0.1171 
      37 H8        -3.7175   -0.0445    5.7346 H         1 <0>         0.1171 
      38 H9         0.1657   -2.7059    6.0276 H         1 <0>         0.1185 
      39 H10        0.6583   -0.4826    8.0503 H         1 <0>         0.0777 
      40 H11       -0.6310   -1.7023    8.1385 H         1 <0>         0.0803 
      41 H12        1.0703   -2.1961    8.2782 H         1 <0>         0.0842 
      42 H13        1.8940    0.5003    6.4438 H         1 <0>         0.4245 
      43 H14        3.8050   -1.6398    4.1590 H         1 <0>         0.1486 
      44 H15        6.1586   -1.2079    3.5011 H         1 <0>         0.1348 
      45 H16        7.4145    0.6709    4.5307 H         1 <0>         0.1332 
      46 H17        6.2961    2.1787    6.1409 H         1 <0>         0.1296 
      47 H18        5.2549    3.1634    7.4528 H         1 <0>         0.4054 
      48 H19        2.9889    3.0689    9.3283 H         1 <0>         0.1035 
      49 H20        2.9213    4.4289    8.1866 H         1 <0>         0.0890 
      50 H21        4.4538    6.5432    8.7809 H         1 <0>         0.1520 
      51 H22        6.3767    6.9128   10.7749 H         1 <0>         0.1526 
      52 H23        6.6900    4.5703   11.8720 H         1 <0>         0.2068 
@<TRIPOS>BOND
       1        1        2 1        
       2        1       30 1        
       3        1       31 1        
       4        1       32 1        
       5        2        3 1        
       6        2       33 1        
       7        2       34 1        
       8        3        4 2        
       9        3        5 am       
      10        5        6 1        
      11        5       35 1        
      12        6        7 1        
      13        6       36 1        
      14        6       37 1        
      15        7        8 2        
      16        7        9 1        
      17        9       10 1        
      18       10       11 1        
      19       10       12 1        
      20       10       38 1        
      21       11       39 1        
      22       11       40 1        
      23       11       41 1        
      24       12       13 2        
      25       12       14 am       
      26       14       15 1        
      27       14       42 1        
      28       15       20 ar       
      29       15       16 ar       
      30       16       17 ar       
      31       16       43 1        
      32       17       18 ar       
      33       17       44 1        
      34       18       19 ar       
      35       18       45 1        
      36       19       20 ar       
      37       19       46 1        
      38       20       21 1        
      39       21       22 2        
      40       21       23 am       
      41       23       24 1        
      42       23       47 1        
      43       24       25 1        
      44       24       48 1        
      45       24       49 1        
      46       25       29 1        
      47       25       26 2        
      48       26       27 1        
      49       26       50 1        
      50       27       28 2        
      51       27       51 1        
      52       28       29 1        
      53       28       52 1        

