#        1GCZ_R01_S0001_C0000_L00017_S0001_C0020_G0010_E0001.mol2
#        Tue Jun  6 14:18:54 2017
#        Descriptor:      9    33     7     9     7    14
#        Energy - RMSD - RMSD MassCentre:     -61.6455    999.9999    999.9999
#        Receptor:       1  Surface Point:     1  Conformer:     0
#        Ligand:        17  Surface Point:     1  Conformer:    20
#        BUDE Formal Charge: 0
#        ATOM Count: 52
#        Heavy ATOM Count: 29
@<TRIPOS>MOLECULE
ZINC61282001_1GCZ_R01_S0001_C0000_L00017_S0001_C0020_G0010_E0001
 52 53 0 0 0
SMALL
USER_CHARGES
@<TRIPOS>ATOM
       1 C1         4.1969   -4.3203    9.3913 C.3       1 <0>        -0.1391 
       2 C2         2.9559   -4.7497   10.1684 C.3       1 <0>        -0.1418 
       3 C3         1.7203   -4.4114    9.3690 C.2       1 <0>         0.5169 
       4 O1         1.8273   -3.8714    8.2690 O.2       1 <0>        -0.5335 
       5 N1         0.5156   -4.6973    9.8545 N.am      1 <0>        -0.7285 
       6 C4        -0.6872   -4.3679    9.0763 C.3       1 <0>         0.1288 
       7 C5        -0.9587   -2.8858    9.1743 C.2       1 <0>         0.4630 
       8 O2        -1.9467   -2.4933    9.7200 O.2       1 <0>        -0.4988 
       9 O3        -0.0847   -2.0035    8.6452 O.3       1 <0>        -0.3175 
      10 C6        -0.3843   -0.6101    8.7625 C.3       1 <0>         0.0731 
      11 C7        -1.7121   -0.3144    8.0709 C.3       1 <0>        -0.1692 
      12 C8         0.7127    0.1963    8.1096 C.2       1 <0>         0.5202 
      13 O4         1.3415    1.0251    8.7658 O.2       1 <0>        -0.4963 
      14 N2         0.9992    0.0105    6.8242 N.am      1 <0>        -0.6538 
      15 C9         2.0268    0.7655    6.2110 C.ar      1 <0>         0.2101 
      16 C10        3.0058    1.4135    6.9733 C.ar      1 <0>        -0.1321 
      17 C11        3.9743    2.1904    6.3263 C.ar      1 <0>        -0.0675 
      18 C12        3.9622    2.3160    4.9313 C.ar      1 <0>        -0.1401 
      19 C13        3.0027    1.6374    4.1706 C.ar      1 <0>        -0.0656 
      20 C14        2.0227    0.8734    4.8153 C.ar      1 <0>        -0.1718 
      21 C15        0.9410    0.1592    4.1007 C.2       1 <0>         0.5702 
      22 O5         0.1069   -0.4854    4.7345 O.2       1 <0>        -0.5422 
      23 N3         0.8715    0.2150    2.7736 N.am      1 <0>        -0.7214 
      24 C16       -0.2028   -0.4942    2.0639 C.3       1 <0>         0.2043 
      25 C17       -0.3728    0.1005    0.6864 C.2       1 <0>        -0.0464 
      26 C18        0.0477   -0.4379   -0.4665 C.2       1 <0>        -0.1782 
      27 C19       -0.3807    0.5526   -1.4793 C.2       1 <0>        -0.2183 
      28 C20       -0.9922    1.5048   -0.7694 C.2       1 <0>        -0.0240 
      29 O6        -1.0386    1.3217    0.6107 O.3       1 <0>        -0.1712 
      30 H1         4.1671   -3.2452    9.2269 H         1 <0>         0.0628 
      31 H2         5.0875   -4.5761    9.9613 H         1 <0>         0.0628 
      32 H3         4.2192   -4.8339    8.4324 H         1 <0>         0.0640 
      33 H4         2.9249   -4.2262   11.1216 H         1 <0>         0.0966 
      34 H5         2.9906   -5.8229   10.3442 H         1 <0>         0.0966 
      35 H6         0.4265   -5.1407   10.7577 H         1 <0>         0.4131 
      36 H7        -0.5313   -4.6393    8.0343 H         1 <0>         0.1171 
      37 H8        -1.5380   -4.9188    9.4717 H         1 <0>         0.1171 
      38 H9        -0.4546   -0.3409    9.8143 H         1 <0>         0.1185 
      39 H10       -1.6446   -0.5956    7.0221 H         1 <0>         0.0777 
      40 H11       -2.5047   -0.8853    8.5499 H         1 <0>         0.0803 
      41 H12       -1.9320    0.7483    8.1486 H         1 <0>         0.0842 
      42 H13        0.4828   -0.6699    6.2854 H         1 <0>         0.4245 
      43 H14        3.0097    1.3190    8.0492 H         1 <0>         0.1486 
      44 H15        4.7267    2.7013    6.9088 H         1 <0>         0.1348 
      45 H16        4.6985    2.9319    4.4363 H         1 <0>         0.1332 
      46 H17        3.0216    1.7071    3.0930 H         1 <0>         0.1296 
      47 H18        1.5569    0.7447    2.2542 H         1 <0>         0.4054 
      48 H19       -1.1323   -0.3935    2.6204 H         1 <0>         0.1035 
      49 H20        0.0554   -1.5473    1.9756 H         1 <0>         0.0890 
      50 H21        0.5723   -1.3647   -0.6457 H         1 <0>         0.1520 
      51 H22       -0.2393    0.5137   -2.5493 H         1 <0>         0.1526 
      52 H23       -1.4339    2.3929   -1.1964 H         1 <0>         0.2068 
@<TRIPOS>BOND
       1        1        2 1        
       2        1       30 1        
       3        1       31 1        
       4        1       32 1        
       5        2        3 1        
       6        2       33 1        
       7        2       34 1        
       8        3        4 2        
       9        3        5 am       
      10        5        6 1        
      11        5       35 1        
      12        6        7 1        
      13        6       36 1        
      14        6       37 1        
      15        7        8 2        
      16        7        9 1        
      17        9       10 1        
      18       10       11 1        
      19       10       12 1        
      20       10       38 1        
      21       11       39 1        
      22       11       40 1        
      23       11       41 1        
      24       12       13 2        
      25       12       14 am       
      26       14       15 1        
      27       14       42 1        
      28       15       20 ar       
      29       15       16 ar       
      30       16       17 ar       
      31       16       43 1        
      32       17       18 ar       
      33       17       44 1        
      34       18       19 ar       
      35       18       45 1        
      36       19       20 ar       
      37       19       46 1        
      38       20       21 1        
      39       21       22 2        
      40       21       23 am       
      41       23       24 1        
      42       23       47 1        
      43       24       25 1        
      44       24       48 1        
      45       24       49 1        
      46       25       29 1        
      47       25       26 2        
      48       26       27 1        
      49       26       50 1        
      50       27       28 2        
      51       27       51 1        
      52       28       29 1        
      53       28       52 1        

