#        1GCZ_R01_S0001_C0000_L00017_S0001_C0021_G0010_E0001.mol2
#        Tue Jun  6 14:18:56 2017
#        Descriptor:     32    15    28    10     6    14
#        Energy - RMSD - RMSD MassCentre:     -73.3996    999.9999    999.9999
#        Receptor:       1  Surface Point:     1  Conformer:     0
#        Ligand:        17  Surface Point:     1  Conformer:    21
#        BUDE Formal Charge: 0
#        ATOM Count: 52
#        Heavy ATOM Count: 29
@<TRIPOS>MOLECULE
ZINC61282001_1GCZ_R01_S0001_C0000_L00017_S0001_C0021_G0010_E0001
 52 53 0 0 0
SMALL
USER_CHARGES
@<TRIPOS>ATOM
       1 C1        -0.5775   -7.7537    8.0747 C.3       1 <0>        -0.1391 
       2 C2         0.6127   -7.3741    7.1985 C.3       1 <0>        -0.1418 
       3 C3         0.8393   -5.8832    7.2772 C.2       1 <0>         0.5169 
       4 O1         0.7633   -5.1942    6.2612 O.2       1 <0>        -0.5335 
       5 N1         1.1214   -5.3147    8.4461 N.am      1 <0>        -0.7285 
       6 C4         1.3420   -3.8634    8.5228 C.3       1 <0>         0.1288 
       7 C5         2.7160   -3.5352    7.9895 C.2       1 <0>         0.4630 
       8 O2         3.5489   -3.0852    8.7187 O.2       1 <0>        -0.4988 
       9 O3         3.0037   -3.7506    6.6883 O.3       1 <0>        -0.3175 
      10 C6         4.3182   -3.4245    6.2292 C.3       1 <0>         0.0731 
      11 C7         5.3503   -4.1878    7.0543 C.3       1 <0>        -0.1692 
      12 C8         4.5502   -1.9403    6.3827 C.2       1 <0>         0.5202 
      13 O4         5.5073   -1.5312    7.0381 O.2       1 <0>        -0.4963 
      14 N2         3.7190   -1.0748    5.8092 N.am      1 <0>        -0.6538 
      15 C9         3.9350    0.3162    5.9522 C.ar      1 <0>         0.2101 
      16 C10        5.1823    0.8219    6.3372 C.ar      1 <0>        -0.1321 
      17 C11        5.3364    2.2020    6.5145 C.ar      1 <0>        -0.0675 
      18 C12        4.2532    3.0657    6.3078 C.ar      1 <0>        -0.1401 
      19 C13        3.0175    2.5589    5.8883 C.ar      1 <0>        -0.0656 
      20 C14        2.8552    1.1780    5.7265 C.ar      1 <0>        -0.1718 
      21 C15        1.5764    0.5453    5.3323 C.2       1 <0>         0.5702 
      22 O5         1.5048   -0.6774    5.2193 O.2       1 <0>        -0.5422 
      23 N3         0.5056    1.2994    5.1007 N.am      1 <0>        -0.7214 
      24 C16       -0.7645    0.6711    4.7094 C.3       1 <0>         0.2043 
      25 C17       -0.6753    0.2091    3.2745 C.2       1 <0>        -0.0464 
      26 C18        0.3868    0.3328    2.4669 C.2       1 <0>        -0.1782 
      27 C19       -0.0755   -0.2820    1.2024 C.2       1 <0>        -0.2183 
      28 C20       -1.3233   -0.6786    1.4670 C.2       1 <0>        -0.0240 
      29 O6        -1.8049   -0.4118    2.7466 O.3       1 <0>        -0.1712 
      30 H1        -1.4686   -7.2425    7.7163 H         1 <0>         0.0628 
      31 H2        -0.7325   -8.8296    8.0285 H         1 <0>         0.0628 
      32 H3        -0.3786   -7.4591    9.1030 H         1 <0>         0.0640 
      33 H4         0.4092   -7.6553    6.1674 H         1 <0>         0.0966 
      34 H5         1.5019   -7.8943    7.5484 H         1 <0>         0.0966 
      35 H6         1.1840   -5.8795    9.2811 H         1 <0>         0.4131 
      36 H7         0.5902   -3.3497    7.9271 H         1 <0>         0.1171 
      37 H8         1.2685   -3.5389    9.5586 H         1 <0>         0.1171 
      38 H9         4.4155   -3.6995    5.1810 H         1 <0>         0.1185 
      39 H10        5.2437   -3.9212    8.1037 H         1 <0>         0.0777 
      40 H11        5.1914   -5.2571    6.9331 H         1 <0>         0.0803 
      41 H12        6.3502   -3.9281    6.7134 H         1 <0>         0.0842 
      42 H13        2.9331   -1.4108    5.2712 H         1 <0>         0.4245 
      43 H14        6.0145    0.1531    6.5008 H         1 <0>         0.1486 
      44 H15        6.2932    2.5982    6.8211 H         1 <0>         0.1348 
      45 H16        4.3697    4.1279    6.4645 H         1 <0>         0.1332 
      46 H17        2.1967    3.2332    5.6935 H         1 <0>         0.1296 
      47 H18        0.5655    2.3033    5.1939 H         1 <0>         0.4054 
      48 H19       -1.5716    1.3937    4.8090 H         1 <0>         0.1035 
      49 H20       -0.9597   -0.1829    5.3545 H         1 <0>         0.0890 
      50 H21        1.3558    0.7682    2.6610 H         1 <0>         0.1520 
      51 H22        0.4713   -0.3928    0.2776 H         1 <0>         0.1526 
      52 H23       -1.9676   -1.1748    0.7565 H         1 <0>         0.2068 
@<TRIPOS>BOND
       1        1        2 1        
       2        1       30 1        
       3        1       31 1        
       4        1       32 1        
       5        2        3 1        
       6        2       33 1        
       7        2       34 1        
       8        3        4 2        
       9        3        5 am       
      10        5        6 1        
      11        5       35 1        
      12        6        7 1        
      13        6       36 1        
      14        6       37 1        
      15        7        8 2        
      16        7        9 1        
      17        9       10 1        
      18       10       11 1        
      19       10       12 1        
      20       10       38 1        
      21       11       39 1        
      22       11       40 1        
      23       11       41 1        
      24       12       13 2        
      25       12       14 am       
      26       14       15 1        
      27       14       42 1        
      28       15       20 ar       
      29       15       16 ar       
      30       16       17 ar       
      31       16       43 1        
      32       17       18 ar       
      33       17       44 1        
      34       18       19 ar       
      35       18       45 1        
      36       19       20 ar       
      37       19       46 1        
      38       20       21 1        
      39       21       22 2        
      40       21       23 am       
      41       23       24 1        
      42       23       47 1        
      43       24       25 1        
      44       24       48 1        
      45       24       49 1        
      46       25       29 1        
      47       25       26 2        
      48       26       27 1        
      49       26       50 1        
      50       27       28 2        
      51       27       51 1        
      52       28       29 1        
      53       28       52 1        

