#        1GCZ_R01_S0001_C0000_L00017_S0001_C0022_G0010_E0001.mol2
#        Tue Jun  6 10:01:16 2017
#        Descriptor:     21     6    35     9    10    12
#        Energy - RMSD - RMSD MassCentre:     -79.0702    999.9999    999.9999
#        Receptor:       1  Surface Point:     1  Conformer:     0
#        Ligand:        17  Surface Point:     1  Conformer:    22
#        BUDE Formal Charge: 0
#        ATOM Count: 52
#        Heavy ATOM Count: 29
@<TRIPOS>MOLECULE
ZINC61282001_1GCZ_R01_S0001_C0000_L00017_S0001_C0022_G0010_E0001
 52 53 0 0 0
SMALL
USER_CHARGES
@<TRIPOS>ATOM
       1 C1         2.4560    0.5729   -1.9304 C.3       1 <0>        -0.1391 
       2 C2         1.1534    0.8807   -2.6632 C.3       1 <0>        -0.1418 
       3 C3         0.0462    1.0826   -1.6564 C.2       1 <0>         0.5169 
       4 O1        -0.9374    0.3443   -1.6665 O.2       1 <0>        -0.5335 
       5 N1         0.1347    2.0596   -0.7582 N.am      1 <0>        -0.7285 
       6 C4        -0.9432    2.2561    0.2218 C.3       1 <0>         0.1288 
       7 C5        -0.8392    1.2046    1.3005 C.2       1 <0>         0.4630 
       8 O2        -1.7028    0.3882    1.4255 O.2       1 <0>        -0.4988 
       9 O3         0.2301    1.1868    2.1243 O.3       1 <0>        -0.3175 
      10 C6         0.2847    0.1723    3.1306 C.3       1 <0>         0.0731 
      11 C7        -0.9231    0.3046    4.0538 C.3       1 <0>        -0.1692 
      12 C8         1.5522    0.3312    3.9359 C.2       1 <0>         0.5202 
      13 O4         2.3623   -0.5923    3.9977 O.2       1 <0>        -0.4963 
      14 N2         1.7927    1.4703    4.5788 N.am      1 <0>        -0.6538 
      15 C9         2.9799    1.6207    5.3339 C.ar      1 <0>         0.2101 
      16 C10        4.0837    0.7851    5.1262 C.ar      1 <0>        -0.1321 
      17 C11        5.2192    0.9381    5.9307 C.ar      1 <0>        -0.0675 
      18 C12        5.2485    1.9177    6.9315 C.ar      1 <0>        -0.1401 
      19 C13        4.1562    2.7744    7.1118 C.ar      1 <0>        -0.0656 
      20 C14        3.0127    2.6132    6.3206 C.ar      1 <0>        -0.1718 
      21 C15        1.7928    3.4382    6.4684 C.2       1 <0>         0.5702 
      22 O5         0.8203    3.2328    5.7437 O.2       1 <0>        -0.5422 
      23 N3         1.7487    4.4011    7.3848 N.am      1 <0>        -0.7214 
      24 C16        0.5371    5.2205    7.5317 C.3       1 <0>         0.2043 
      25 C17       -0.5392    4.4085    8.2117 C.2       1 <0>        -0.0464 
      26 C18       -0.9269    4.5191    9.4895 C.2       1 <0>        -0.1782 
      27 C19       -1.9944    3.5009    9.6094 C.2       1 <0>        -0.2183 
      28 C20       -2.0744    2.9640    8.3888 C.2       1 <0>        -0.0240 
      29 O6        -1.1949    3.4605    7.4295 O.3       1 <0>        -0.1712 
      30 H1         2.3377   -0.3393   -1.3492 H         1 <0>         0.0628 
      31 H2         3.2566    0.4405   -2.6552 H         1 <0>         0.0628 
      32 H3         2.7009    1.3982   -1.2651 H         1 <0>         0.0640 
      33 H4         0.8999    0.0500   -3.3183 H         1 <0>         0.0966 
      34 H5         1.2744    1.7860   -3.2545 H         1 <0>         0.0966 
      35 H6         0.9420    2.6665   -0.7491 H         1 <0>         0.4131 
      36 H7        -0.8521    3.2437    0.6689 H         1 <0>         0.1171 
      37 H8        -1.9069    2.1702   -0.2758 H         1 <0>         0.1171 
      38 H9         0.2760   -0.8081    2.6590 H         1 <0>         0.1185 
      39 H10       -0.9201    1.2899    4.5151 H         1 <0>         0.0777 
      40 H11       -1.8361    0.1769    3.4759 H         1 <0>         0.0803 
      41 H12       -0.8731   -0.4589    4.8272 H         1 <0>         0.0842 
      42 H13        1.1276    2.2285    4.5281 H         1 <0>         0.4245 
      43 H14        4.0563    0.0273    4.3571 H         1 <0>         0.1486 
      44 H15        6.0706    0.2904    5.7827 H         1 <0>         0.1348 
      45 H16        6.1182    2.0204    7.5637 H         1 <0>         0.1332 
      46 H17        4.1994    3.5527    7.8593 H         1 <0>         0.1296 
      47 H18        2.5478    4.5690    7.9793 H         1 <0>         0.4054 
      48 H19        0.1902    5.5332    6.5490 H         1 <0>         0.1035 
      49 H20        0.7644    6.0983    8.1328 H         1 <0>         0.0890 
      50 H21       -0.5689    5.1790   10.2658 H         1 <0>         0.1520 
      51 H22       -2.5813    3.2518   10.4809 H         1 <0>         0.1526 
      52 H23       -2.7615    2.1774    8.1140 H         1 <0>         0.2068 
@<TRIPOS>BOND
       1        1        2 1        
       2        1       30 1        
       3        1       31 1        
       4        1       32 1        
       5        2        3 1        
       6        2       33 1        
       7        2       34 1        
       8        3        4 2        
       9        3        5 am       
      10        5        6 1        
      11        5       35 1        
      12        6        7 1        
      13        6       36 1        
      14        6       37 1        
      15        7        8 2        
      16        7        9 1        
      17        9       10 1        
      18       10       11 1        
      19       10       12 1        
      20       10       38 1        
      21       11       39 1        
      22       11       40 1        
      23       11       41 1        
      24       12       13 2        
      25       12       14 am       
      26       14       15 1        
      27       14       42 1        
      28       15       20 ar       
      29       15       16 ar       
      30       16       17 ar       
      31       16       43 1        
      32       17       18 ar       
      33       17       44 1        
      34       18       19 ar       
      35       18       45 1        
      36       19       20 ar       
      37       19       46 1        
      38       20       21 1        
      39       21       22 2        
      40       21       23 am       
      41       23       24 1        
      42       23       47 1        
      43       24       25 1        
      44       24       48 1        
      45       24       49 1        
      46       25       29 1        
      47       25       26 2        
      48       26       27 1        
      49       26       50 1        
      50       27       28 2        
      51       27       51 1        
      52       28       29 1        
      53       28       52 1        

