#        1GCZ_R01_S0001_C0000_L00017_S0001_C0023_G0010_E0001.mol2
#        Tue Jun  6 10:01:17 2017
#        Descriptor:     27    28     3     9     6    15
#        Energy - RMSD - RMSD MassCentre:     -63.3496    999.9999    999.9999
#        Receptor:       1  Surface Point:     1  Conformer:     0
#        Ligand:        17  Surface Point:     1  Conformer:    23
#        BUDE Formal Charge: 0
#        ATOM Count: 52
#        Heavy ATOM Count: 29
@<TRIPOS>MOLECULE
ZINC61282001_1GCZ_R01_S0001_C0000_L00017_S0001_C0023_G0010_E0001
 52 53 0 0 0
SMALL
USER_CHARGES
@<TRIPOS>ATOM
       1 C1         0.6069   -8.9755    9.5778 C.3       1 <0>        -0.1391 
       2 C2         1.4730   -7.7231    9.6781 C.3       1 <0>        -0.1418 
       3 C3         1.3019   -6.8925    8.4287 C.2       1 <0>         0.5169 
       4 O1         0.5488   -7.2738    7.5341 O.2       1 <0>        -0.5335 
       5 N1         1.9661   -5.7480    8.2955 N.am      1 <0>        -0.7285 
       6 C4         1.7996   -4.9394    7.0792 C.3       1 <0>         0.1288 
       7 C5         0.4793   -4.2091    7.1383 C.2       1 <0>         0.4630 
       8 O2        -0.3824   -4.4663    6.3513 O.2       1 <0>        -0.4988 
       9 O3         0.2720   -3.2653    8.0810 O.3       1 <0>        -0.3175 
      10 C6        -0.9940   -2.6007    8.0977 C.3       1 <0>         0.0731 
      11 C7        -2.1097   -3.6326    8.2361 C.3       1 <0>        -0.1692 
      12 C8        -1.1758   -1.8337    6.8096 C.2       1 <0>         0.5202 
      13 O4        -2.1579   -2.0458    6.1002 O.2       1 <0>        -0.4963 
      14 N2        -0.2734   -0.9286    6.4420 N.am      1 <0>        -0.6538 
      15 C9        -0.4424   -0.2093    5.2354 C.ar      1 <0>         0.2101 
      16 C10       -1.2535   -0.6992    4.2050 C.ar      1 <0>        -0.1321 
      17 C11       -1.3517    0.0221    3.0091 C.ar      1 <0>        -0.0675 
      18 C12       -0.6457    1.2211    2.8478 C.ar      1 <0>        -0.1401 
      19 C13        0.1358    1.7253    3.8941 C.ar      1 <0>        -0.0656 
      20 C14        0.2499    0.9982    5.0849 C.ar      1 <0>        -0.1718 
      21 C15        1.0882    1.4258    6.2273 C.2       1 <0>         0.5702 
      22 O5         1.1485    0.7299    7.2397 O.2       1 <0>        -0.5422 
      23 N3         1.7757    2.5622    6.1584 N.am      1 <0>        -0.7214 
      24 C16        2.6083    2.9869    7.2930 C.3       1 <0>         0.2043 
      25 C17        3.8556    2.1374    7.3465 C.2       1 <0>        -0.0464 
      26 C18        4.0895    1.1258    8.1936 C.2       1 <0>        -0.1782 
      27 C19        5.4390    0.6608    7.8020 C.2       1 <0>        -0.2183 
      28 C20        5.7789    1.4581    6.7856 C.2       1 <0>        -0.0240 
      29 O6         4.8524    2.4318    6.4192 O.3       1 <0>        -0.1712 
      30 H1         0.9196   -9.5641    8.7179 H         1 <0>         0.0628 
      31 H2         0.7200   -9.5674   10.4837 H         1 <0>         0.0628 
      32 H3        -0.4353   -8.6864    9.4604 H         1 <0>         0.0640 
      33 H4         2.5172   -8.0109    9.7813 H         1 <0>         0.0966 
      34 H5         1.1694   -7.1399   10.5450 H         1 <0>         0.0966 
      35 H6         2.5849   -5.4340    9.0294 H         1 <0>         0.4131 
      36 H7         2.6101   -4.2170    7.0095 H         1 <0>         0.1171 
      37 H8         1.8156   -5.5886    6.2063 H         1 <0>         0.1171 
      38 H9        -1.0310   -1.9106    8.9381 H         1 <0>         0.1185 
      39 H10       -2.0639   -4.3293    7.4017 H         1 <0>         0.0777 
      40 H11       -1.9862   -4.1759    9.1704 H         1 <0>         0.0803 
      41 H12       -3.0729   -3.1268    8.2344 H         1 <0>         0.0842 
      42 H13        0.5330   -0.7546    7.0246 H         1 <0>         0.4245 
      43 H14       -1.7927   -1.6265    4.3302 H         1 <0>         0.1486 
      44 H15       -1.9677   -0.3550    2.2062 H         1 <0>         0.1348 
      45 H16       -0.7078    1.7654    1.9171 H         1 <0>         0.1332 
      46 H17        0.6473    2.6695    3.7780 H         1 <0>         0.1296 
      47 H18        1.7254    3.1329    5.3265 H         1 <0>         0.4054 
      48 H19        2.0478    2.8681    8.2178 H         1 <0>         0.1035 
      49 H20        2.8854    4.0314    7.1678 H         1 <0>         0.0890 
      50 H21        3.4670    0.7243    8.9794 H         1 <0>         0.1520 
      51 H22        6.0164   -0.1437    8.2327 H         1 <0>         0.1526 
      52 H23        6.7152    1.3968    6.2509 H         1 <0>         0.2068 
@<TRIPOS>BOND
       1        1        2 1        
       2        1       30 1        
       3        1       31 1        
       4        1       32 1        
       5        2        3 1        
       6        2       33 1        
       7        2       34 1        
       8        3        4 2        
       9        3        5 am       
      10        5        6 1        
      11        5       35 1        
      12        6        7 1        
      13        6       36 1        
      14        6       37 1        
      15        7        8 2        
      16        7        9 1        
      17        9       10 1        
      18       10       11 1        
      19       10       12 1        
      20       10       38 1        
      21       11       39 1        
      22       11       40 1        
      23       11       41 1        
      24       12       13 2        
      25       12       14 am       
      26       14       15 1        
      27       14       42 1        
      28       15       20 ar       
      29       15       16 ar       
      30       16       17 ar       
      31       16       43 1        
      32       17       18 ar       
      33       17       44 1        
      34       18       19 ar       
      35       18       45 1        
      36       19       20 ar       
      37       19       46 1        
      38       20       21 1        
      39       21       22 2        
      40       21       23 am       
      41       23       24 1        
      42       23       47 1        
      43       24       25 1        
      44       24       48 1        
      45       24       49 1        
      46       25       29 1        
      47       25       26 2        
      48       26       27 1        
      49       26       50 1        
      50       27       28 2        
      51       27       51 1        
      52       28       29 1        
      53       28       52 1        

