#        1GCZ_R01_S0001_C0000_L00017_S0001_C0023_G0010_E0001.mol2
#        Tue Jun  6 14:19:00 2017
#        Descriptor:      2    32    13    13     6    14
#        Energy - RMSD - RMSD MassCentre:     -63.5855    999.9999    999.9999
#        Receptor:       1  Surface Point:     1  Conformer:     0
#        Ligand:        17  Surface Point:     1  Conformer:    23
#        BUDE Formal Charge: 0
#        ATOM Count: 52
#        Heavy ATOM Count: 29
@<TRIPOS>MOLECULE
ZINC61282001_1GCZ_R01_S0001_C0000_L00017_S0001_C0023_G0010_E0001
 52 53 0 0 0
SMALL
USER_CHARGES
@<TRIPOS>ATOM
       1 C1         4.4541   -9.3162    4.7225 C.3       1 <0>        -0.1391 
       2 C2         5.4850   -8.1913    4.7417 C.3       1 <0>        -0.1418 
       3 C3         4.7944   -6.8725    4.4883 C.2       1 <0>         0.5169 
       4 O1         3.5782   -6.8390    4.3076 O.2       1 <0>        -0.5335 
       5 N1         5.5017   -5.7465    4.4603 N.am      1 <0>        -0.7285 
       6 C4         4.8294   -4.4628    4.2136 C.3       1 <0>         0.1288 
       7 C5         4.1102   -4.0234    5.4665 C.2       1 <0>         0.4630 
       8 O2         2.9175   -3.9505    5.4773 O.2       1 <0>        -0.4988 
       9 O3         4.8150   -3.7130    6.5752 O.3       1 <0>        -0.3175 
      10 C6         4.0903   -3.3021    7.7375 C.3       1 <0>         0.0731 
      11 C7         3.0903   -4.3877    8.1249 C.3       1 <0>        -0.1692 
      12 C8         3.3501   -2.0198    7.4407 C.2       1 <0>         0.5202 
      13 O4         2.1318   -1.9614    7.5987 O.2       1 <0>        -0.4963 
      14 N2         4.0160   -0.9529    7.0081 N.am      1 <0>        -0.6538 
      15 C9         3.3238    0.2493    6.7295 C.ar      1 <0>         0.2101 
      16 C10        1.9499    0.2510    6.4609 C.ar      1 <0>        -0.1321 
      17 C11        1.3163    1.4579    6.1413 C.ar      1 <0>        -0.0675 
      18 C12        2.0508    2.6496    6.0923 C.ar      1 <0>        -0.1401 
      19 C13        3.4173    2.6485    6.3967 C.ar      1 <0>        -0.0656 
      20 C14        4.0575    1.4411    6.6999 C.ar      1 <0>        -0.1718 
      21 C15        5.5052    1.3329    6.9885 C.2       1 <0>         0.5702 
      22 O5         6.0019    0.2355    7.2371 O.2       1 <0>        -0.5422 
      23 N3         6.2680    2.4224    6.9789 N.am      1 <0>        -0.7214 
      24 C16        7.7057    2.3149    7.2656 C.3       1 <0>         0.2043 
      25 C17        8.4111    1.7082    6.0763 C.2       1 <0>        -0.0464 
      26 C18        8.8428    0.4440    5.9712 C.2       1 <0>        -0.1782 
      27 C19        9.4442    0.4023    4.6194 C.2       1 <0>        -0.2183 
      28 C20        9.2620    1.6360    4.1409 C.2       1 <0>        -0.0240 
      29 O6         8.6241    2.5443    4.9826 O.3       1 <0>        -0.1712 
      30 H1         3.9748   -9.3514    3.7465 H         1 <0>         0.0628 
      31 H2         4.9497  -10.2648    4.9183 H         1 <0>         0.0628 
      32 H3         3.7042   -9.1331    5.4891 H         1 <0>         0.0640 
      33 H4         6.2277   -8.3659    3.9661 H         1 <0>         0.0966 
      34 H5         5.9739   -8.1631    5.7133 H         1 <0>         0.0966 
      35 H6         6.5005   -5.7729    4.6084 H         1 <0>         0.4131 
      36 H7         5.5681   -3.7129    3.9383 H         1 <0>         0.1171 
      37 H8         4.1106   -4.5786    3.4052 H         1 <0>         0.1171 
      38 H9         4.7845   -3.1375    8.5590 H         1 <0>         0.1185 
      39 H10        2.4046   -4.5600    7.2980 H         1 <0>         0.0777 
      40 H11        3.6247   -5.3077    8.3516 H         1 <0>         0.0803 
      41 H12        2.5299   -4.0678    9.0008 H         1 <0>         0.0842 
      42 H13        5.0164   -1.0009    6.8783 H         1 <0>         0.4245 
      43 H14        1.3871   -0.6700    6.4944 H         1 <0>         0.1486 
      44 H15        0.2586    1.4652    5.9232 H         1 <0>         0.1348 
      45 H16        1.5634    3.5759    5.8265 H         1 <0>         0.1332 
      46 H17        3.9705    3.5762    6.3948 H         1 <0>         0.1296 
      47 H18        5.8589    3.3231    6.7747 H         1 <0>         0.4054 
      48 H19        7.8547    1.6823    8.1380 H         1 <0>         0.1035 
      49 H20        8.1108    3.3054    7.4617 H         1 <0>         0.0890 
      50 H21        8.7817   -0.3684    6.6801 H         1 <0>         0.1520 
      51 H22        9.9164   -0.4347    4.1270 H         1 <0>         0.1526 
      52 H23        9.5836    1.9630    3.1631 H         1 <0>         0.2068 
@<TRIPOS>BOND
       1        1        2 1        
       2        1       30 1        
       3        1       31 1        
       4        1       32 1        
       5        2        3 1        
       6        2       33 1        
       7        2       34 1        
       8        3        4 2        
       9        3        5 am       
      10        5        6 1        
      11        5       35 1        
      12        6        7 1        
      13        6       36 1        
      14        6       37 1        
      15        7        8 2        
      16        7        9 1        
      17        9       10 1        
      18       10       11 1        
      19       10       12 1        
      20       10       38 1        
      21       11       39 1        
      22       11       40 1        
      23       11       41 1        
      24       12       13 2        
      25       12       14 am       
      26       14       15 1        
      27       14       42 1        
      28       15       20 ar       
      29       15       16 ar       
      30       16       17 ar       
      31       16       43 1        
      32       17       18 ar       
      33       17       44 1        
      34       18       19 ar       
      35       18       45 1        
      36       19       20 ar       
      37       19       46 1        
      38       20       21 1        
      39       21       22 2        
      40       21       23 am       
      41       23       24 1        
      42       23       47 1        
      43       24       25 1        
      44       24       48 1        
      45       24       49 1        
      46       25       29 1        
      47       25       26 2        
      48       26       27 1        
      49       26       50 1        
      50       27       28 2        
      51       27       51 1        
      52       28       29 1        
      53       28       52 1        

