#        1GCZ_R01_S0001_C0000_L00003_S0001_C0037_G0010_E0001.mol2
#        Tue Jun  6 09:55:07 2017
#        Descriptor:      5     4    35    12     6    12
#        Energy - RMSD - RMSD MassCentre:     -61.3949    999.9999    999.9999
#        Receptor:       1  Surface Point:     1  Conformer:     0
#        Ligand:         3  Surface Point:     1  Conformer:    37
#        BUDE Formal Charge: 0
#        ATOM Count: 58
#        Heavy ATOM Count: 30
@<TRIPOS>MOLECULE
ZINC61580633_1GCZ_R01_S0001_C0000_L00003_S0001_C0037_G0010_E0001
 58 59 0 0 0
SMALL
USER_CHARGES
@<TRIPOS>ATOM
       1 C1         0.0824    0.2028    0.1623 C.3       1 <0>        -0.1532 
       2 C2        -0.9436   -0.3603    1.1414 C.3       1 <0>        -0.1224 
       3 C3        -0.5292   -0.0099    2.5698 C.3       1 <0>        -0.1198 
       4 C4        -1.5567   -0.5739    3.5501 C.3       1 <0>         0.0610 
       5 O1        -1.1688   -0.2459    4.8868 O.3       1 <0>        -0.3878 
       6 C5         0.1042   -0.8021    5.2259 C.3       1 <0>         0.0487 
       7 C6         0.4610   -0.4177    6.6611 C.3       1 <0>         0.1244 
       8 N1         1.7697   -0.9895    7.0095 N.am      1 <0>        -0.7216 
       9 C7         2.8786   -0.4846    6.4765 C.2       1 <0>         0.5161 
      10 O2         2.8101    0.4603    5.6922 O.2       1 <0>        -0.5151 
      11 C8         4.2230   -1.0720    6.8345 C.3       1 <0>         0.0490 
      12 O3         4.3406   -2.3761    6.2598 O.3       1 <0>        -0.3194 
      13 C9         3.4778   -3.3295    6.6711 C.2       1 <0>         0.5417 
      14 O4         2.6306   -3.0664    7.5086 O.2       1 <0>        -0.5337 
      15 C10        3.5599   -4.6946    6.1057 C.2       1 <0>        -0.2559 
      16 C11        2.6750   -5.8155    6.4946 C.2       1 <0>        -0.0791 
      17 C12        2.9682   -6.9441    5.8448 C.2       1 <0>        -0.2585 
      18 S1         4.3180   -6.7512    4.7164 S.3       1 <0>         0.3028 
      19 C13        4.4651   -5.0505    5.1840 C.2       1 <0>         0.0893 
      20 N2         5.3907   -4.1686    4.6919 N.am      1 <0>        -0.6099 
      21 C14        6.2701   -4.5675    3.7774 C.2       1 <0>         0.5551 
      22 O5         6.2523   -5.7290    3.3730 O.2       1 <0>        -0.4939 
      23 C15        7.2694   -3.6134    3.2467 C.ar      1 <0>        -0.1466 
      24 C16        8.1781   -4.0765    2.2876 C.ar      1 <0>        -0.0772 
      25 C17        9.1926   -3.2425    1.8027 C.ar      1 <0>        -0.1241 
      26 C18        9.3235   -1.9318    2.2761 C.ar      1 <0>        -0.0446 
      27 C19        8.3843   -1.4492    3.1954 C.ar      1 <0>        -0.1261 
      28 C20        7.3537   -2.2773    3.6559 C.ar      1 <0>        -0.0460 
      29 C21       10.4617   -1.0684    1.7868 C.3       1 <0>        -0.0928 
      30 C22       11.6658   -1.2461    2.7072 C.3       1 <0>        -0.1485 
      31 H1         1.0562   -0.2383    0.3649 H         1 <0>         0.0567 
      32 H2         0.1412    1.2827    0.2807 H         1 <0>         0.0554 
      33 H3        -0.2197   -0.0351   -0.8554 H         1 <0>         0.0557 
      34 H4        -1.9204    0.0706    0.9317 H         1 <0>         0.0632 
      35 H5        -0.9932   -1.4419    1.0337 H         1 <0>         0.0635 
      36 H6         0.4471   -0.4410    2.7808 H         1 <0>         0.0711 
      37 H7        -0.4803    1.0715    2.6789 H         1 <0>         0.0704 
      38 H8        -2.5335   -0.1430    3.3405 H         1 <0>         0.0498 
      39 H9        -1.6059   -1.6554    3.4424 H         1 <0>         0.0505 
      40 H10        0.8621   -0.4148    4.5482 H         1 <0>         0.0584 
      41 H11        0.0613   -1.8860    5.1415 H         1 <0>         0.0702 
      42 H12       -0.2957   -0.8053    7.3398 H         1 <0>         0.0872 
      43 H13        0.5051    0.6659    6.7465 H         1 <0>         0.0805 
      44 H14        1.8272   -1.7654    7.6535 H         1 <0>         0.4058 
      45 H15        5.0136   -0.4329    6.4469 H         1 <0>         0.1008 
      46 H16        4.3115   -1.1438    7.9164 H         1 <0>         0.0999 
      47 H17        1.8795   -5.7064    7.2168 H         1 <0>         0.1557 
      48 H18        2.4220   -7.8638    5.9933 H         1 <0>         0.1929 
      49 H19        5.4054   -3.2149    5.0239 H         1 <0>         0.4317 
      50 H20        8.1005   -5.0889    1.9196 H         1 <0>         0.1287 
      51 H21        9.8839   -3.6088    1.0583 H         1 <0>         0.1326 
      52 H22        8.4638   -0.4290    3.5406 H         1 <0>         0.1342 
      53 H23        6.6253   -1.8329    4.3179 H         1 <0>         0.1410 
      54 H24       10.1523   -0.0254    1.7904 H         1 <0>         0.0777 
      55 H25       10.7311   -1.3638    0.7749 H         1 <0>         0.0771 
      56 H26       11.9819   -2.2870    2.6929 H         1 <0>         0.0623 
      57 H27       11.3910   -0.9637    3.7214 H         1 <0>         0.0572 
      58 H28       12.4813   -0.6139    2.3623 H         1 <0>         0.0578 
@<TRIPOS>BOND
       1        1        2 1        
       2        1       31 1        
       3        1       32 1        
       4        1       33 1        
       5        2        3 1        
       6        2       34 1        
       7        2       35 1        
       8        3        4 1        
       9        3       36 1        
      10        3       37 1        
      11        4        5 1        
      12        4       38 1        
      13        4       39 1        
      14        5        6 1        
      15        6        7 1        
      16        6       40 1        
      17        6       41 1        
      18        7        8 1        
      19        7       42 1        
      20        7       43 1        
      21        8        9 am       
      22        8       44 1        
      23        9       10 2        
      24        9       11 1        
      25       11       12 1        
      26       11       45 1        
      27       11       46 1        
      28       12       13 1        
      29       13       14 2        
      30       13       15 1        
      31       15       19 2        
      32       15       16 1        
      33       16       17 2        
      34       16       47 1        
      35       17       18 1        
      36       17       48 1        
      37       18       19 1        
      38       19       20 1        
      39       20       21 am       
      40       20       49 1        
      41       21       22 2        
      42       21       23 1        
      43       23       28 ar       
      44       23       24 ar       
      45       24       25 ar       
      46       24       50 1        
      47       25       26 ar       
      48       25       51 1        
      49       26       27 ar       
      50       26       29 1        
      51       27       28 ar       
      52       27       52 1        
      53       28       53 1        
      54       29       30 1        
      55       29       54 1        
      56       29       55 1        
      57       30       56 1        
      58       30       57 1        
      59       30       58 1        

