#        1GCZ_R01_S0001_C0000_L00017_S0001_C0024_G0010_E0001.mol2
#        Tue Jun  6 10:01:18 2017
#        Descriptor:     28     6    19     9     9    12
#        Energy - RMSD - RMSD MassCentre:     -75.2897    999.9999    999.9999
#        Receptor:       1  Surface Point:     1  Conformer:     0
#        Ligand:        17  Surface Point:     1  Conformer:    24
#        BUDE Formal Charge: 0
#        ATOM Count: 52
#        Heavy ATOM Count: 29
@<TRIPOS>MOLECULE
ZINC61282001_1GCZ_R01_S0001_C0000_L00017_S0001_C0024_G0010_E0001
 52 53 0 0 0
SMALL
USER_CHARGES
@<TRIPOS>ATOM
       1 C1         0.7171    0.6021   -3.5870 C.3       1 <0>        -0.1391 
       2 C2        -0.3888    1.3693   -2.8679 C.3       1 <0>        -0.1418 
       3 C3        -0.8088    0.6068   -1.6341 C.2       1 <0>         0.5169 
       4 O1        -0.2665   -0.4615   -1.3560 O.2       1 <0>        -0.5335 
       5 N1        -1.7659    1.0908   -0.8475 N.am      1 <0>        -0.7285 
       6 C4        -2.1748    0.3485    0.3535 C.3       1 <0>         0.1288 
       7 C5        -1.1392    0.5353    1.4365 C.2       1 <0>         0.4630 
       8 O2        -0.5000   -0.3984    1.8204 O.2       1 <0>        -0.4988 
       9 O3        -0.9353    1.7580    1.9710 O.3       1 <0>        -0.3175 
      10 C6         0.0559    1.8861    2.9937 C.3       1 <0>         0.0731 
      11 C7         1.3998    1.3920    2.4659 C.3       1 <0>        -0.1692 
      12 C8        -0.3479    1.0596    4.1913 C.2       1 <0>         0.5202 
      13 O4        -1.3747    0.3834    4.1547 O.2       1 <0>        -0.4963 
      14 N2         0.4069    1.0631    5.2862 N.am      1 <0>        -0.6538 
      15 C9         0.0297    0.2893    6.4092 C.ar      1 <0>         0.2101 
      16 C10       -1.2953   -0.1218    6.5963 C.ar      1 <0>        -0.1321 
      17 C11       -1.6322   -0.8436    7.7476 C.ar      1 <0>        -0.0675 
      18 C12       -0.6522   -1.1509    8.7002 C.ar      1 <0>        -0.1401 
      19 C13        0.6782   -0.7688    8.4914 C.ar      1 <0>        -0.0656 
      20 C14        1.0155   -0.0322    7.3498 C.ar      1 <0>        -0.1718 
      21 C15        2.3836    0.4561    7.0660 C.2       1 <0>         0.5702 
      22 O5         2.6044    1.1075    6.0463 O.2       1 <0>        -0.5422 
      23 N3         3.3733    0.1902    7.9137 N.am      1 <0>        -0.7214 
      24 C16        4.7320    0.6751    7.6318 C.3       1 <0>         0.2043 
      25 C17        4.7984    2.1615    7.8892 C.2       1 <0>        -0.0464 
      26 C18        3.7930    2.9374    8.3166 C.2       1 <0>        -0.1782 
      27 C19        4.4104    4.2802    8.3946 C.2       1 <0>        -0.2183 
      28 C20        5.6759    4.0823    8.0153 C.2       1 <0>        -0.0240 
      29 O6         6.0268    2.7798    7.6678 O.3       1 <0>        -0.1712 
      30 H1         0.3439   -0.3750   -3.8867 H         1 <0>         0.0628 
      31 H2         1.0289    1.1579   -4.4687 H         1 <0>         0.0628 
      32 H3         1.5654    0.4771   -2.9174 H         1 <0>         0.0640 
      33 H4        -1.2432    1.4826   -3.5318 H         1 <0>         0.0966 
      34 H5        -0.0205    2.3514   -2.5787 H         1 <0>         0.0966 
      35 H6        -2.2120    1.9680   -1.0750 H         1 <0>         0.4131 
      36 H7        -3.1350    0.7227    0.7024 H         1 <0>         0.1171 
      37 H8        -2.2621   -0.7093    0.1148 H         1 <0>         0.1171 
      38 H9         0.1425    2.9303    3.2872 H         1 <0>         0.1185 
      39 H10        1.3087    0.3516    2.1612 H         1 <0>         0.0777 
      40 H11        1.6971    1.9961    1.6112 H         1 <0>         0.0803 
      41 H12        2.1498    1.4769    3.2493 H         1 <0>         0.0842 
      42 H13        1.2499    1.6184    5.3163 H         1 <0>         0.4245 
      43 H14       -2.0498    0.1210    5.8627 H         1 <0>         0.1486 
      44 H15       -2.6544   -1.1553    7.9034 H         1 <0>         0.1348 
      45 H16       -0.9187   -1.6908    9.5967 H         1 <0>         0.1332 
      46 H17        1.4364   -1.0417    9.2106 H         1 <0>         0.1296 
      47 H18        3.1908   -0.3449    8.7507 H         1 <0>         0.4054 
      48 H19        4.9793    0.4750    6.5914 H         1 <0>         0.1035 
      49 H20        5.4408    0.1625    8.2787 H         1 <0>         0.0890 
      50 H21        2.7722    2.6772    8.5548 H         1 <0>         0.1520 
      51 H22        3.9482    5.2085    8.6959 H         1 <0>         0.1526 
      52 H23        6.4221    4.8607    7.9557 H         1 <0>         0.2068 
@<TRIPOS>BOND
       1        1        2 1        
       2        1       30 1        
       3        1       31 1        
       4        1       32 1        
       5        2        3 1        
       6        2       33 1        
       7        2       34 1        
       8        3        4 2        
       9        3        5 am       
      10        5        6 1        
      11        5       35 1        
      12        6        7 1        
      13        6       36 1        
      14        6       37 1        
      15        7        8 2        
      16        7        9 1        
      17        9       10 1        
      18       10       11 1        
      19       10       12 1        
      20       10       38 1        
      21       11       39 1        
      22       11       40 1        
      23       11       41 1        
      24       12       13 2        
      25       12       14 am       
      26       14       15 1        
      27       14       42 1        
      28       15       20 ar       
      29       15       16 ar       
      30       16       17 ar       
      31       16       43 1        
      32       17       18 ar       
      33       17       44 1        
      34       18       19 ar       
      35       18       45 1        
      36       19       20 ar       
      37       19       46 1        
      38       20       21 1        
      39       21       22 2        
      40       21       23 am       
      41       23       24 1        
      42       23       47 1        
      43       24       25 1        
      44       24       48 1        
      45       24       49 1        
      46       25       29 1        
      47       25       26 2        
      48       26       27 1        
      49       26       50 1        
      50       27       28 2        
      51       27       51 1        
      52       28       29 1        
      53       28       52 1        

