#        1GCZ_R01_S0001_C0000_L00017_S0001_C0024_G0010_E0001.mol2
#        Tue Jun  6 14:19:02 2017
#        Descriptor:      5    11     5    11     8    12
#        Energy - RMSD - RMSD MassCentre:     -66.7807    999.9999    999.9999
#        Receptor:       1  Surface Point:     1  Conformer:     0
#        Ligand:        17  Surface Point:     1  Conformer:    24
#        BUDE Formal Charge: 0
#        ATOM Count: 52
#        Heavy ATOM Count: 29
@<TRIPOS>MOLECULE
ZINC61282001_1GCZ_R01_S0001_C0000_L00017_S0001_C0024_G0010_E0001
 52 53 0 0 0
SMALL
USER_CHARGES
@<TRIPOS>ATOM
       1 C1         0.4239    1.4669   -3.0009 C.3       1 <0>        -0.1391 
       2 C2        -0.3028    2.1065   -1.8213 C.3       1 <0>        -0.1418 
       3 C3        -0.4372    1.0968   -0.7066 C.2       1 <0>         0.5169 
       4 O1         0.0121   -0.0395   -0.8475 O.2       1 <0>        -0.5335 
       5 N1        -1.0419    1.4363    0.4283 N.am      1 <0>        -0.7285 
       6 C4        -1.1728    0.4534    1.5133 C.3       1 <0>         0.1288 
       7 C5         0.1532    0.3064    2.2207 C.2       1 <0>         0.4630 
       8 O2         0.7440   -0.7313    2.1747 O.2       1 <0>        -0.4988 
       9 O3         0.6716    1.3479    2.9053 O.3       1 <0>        -0.3175 
      10 C6         1.9297    1.1615    3.5589 C.3       1 <0>         0.0731 
      11 C7         2.9754    0.7249    2.5368 C.3       1 <0>        -0.1692 
      12 C8         1.7911    0.0975    4.6215 C.2       1 <0>         0.5202 
      13 O4         0.7177   -0.4829    4.7753 O.2       1 <0>        -0.4963 
      14 N2         2.8303   -0.2120    5.3916 N.am      1 <0>        -0.6538 
      15 C9         2.7019   -1.2087    6.3877 C.ar      1 <0>         0.2101 
      16 C10        1.4492   -1.5673    6.8994 C.ar      1 <0>        -0.1321 
      17 C11        1.3745   -2.5230    7.9197 C.ar      1 <0>        -0.0675 
      18 C12        2.5417   -3.1134    8.4209 C.ar      1 <0>        -0.1401 
      19 C13        3.7891   -2.7779    7.8814 C.ar      1 <0>        -0.0656 
      20 C14        3.8691   -1.8102    6.8731 C.ar      1 <0>        -0.1718 
      21 C15        5.1443   -1.3561    6.2745 C.2       1 <0>         0.5702 
      22 O5         5.1389   -0.4930    5.3982 O.2       1 <0>        -0.5422 
      23 N3         6.2953   -1.8817    6.6844 N.am      1 <0>        -0.7214 
      24 C16        7.5617   -1.4308    6.0898 C.3       1 <0>         0.2043 
      25 C17        7.9038   -0.0580    6.6177 C.2       1 <0>        -0.0464 
      26 C18        7.1865    0.6541    7.4975 C.2       1 <0>        -0.1782 
      27 C19        7.9765    1.8960    7.6528 C.2       1 <0>        -0.2183 
      28 C20        9.0327    1.7153    6.8552 C.2       1 <0>        -0.0240 
      29 O6         9.0833    0.5158    6.1487 O.3       1 <0>        -0.1712 
      30 H1        -0.1512    0.6171   -3.3627 H         1 <0>         0.0628 
      31 H2         0.5324    2.1984   -3.7989 H         1 <0>         0.0628 
      32 H3         1.4074    1.1299   -2.6806 H         1 <0>         0.0640 
      33 H4        -1.2920    2.4312   -2.1368 H         1 <0>         0.0966 
      34 H5         0.2652    2.9640   -1.4665 H         1 <0>         0.0966 
      35 H6        -1.4113    2.3691    0.5450 H         1 <0>         0.4131 
      36 H7        -1.9254    0.7925    2.2220 H         1 <0>         0.1171 
      37 H8        -1.4706   -0.5076    1.0992 H         1 <0>         0.1171 
      38 H9         2.2413    2.0960    4.0209 H         1 <0>         0.1185 
      39 H10        2.6568   -0.2030    2.0667 H         1 <0>         0.0777 
      40 H11        3.0849    1.4975    1.7785 H         1 <0>         0.0803 
      41 H12        3.9286    0.5698    3.0377 H         1 <0>         0.0842 
      42 H13        3.7116    0.2646    5.2653 H         1 <0>         0.4245 
      43 H14        0.5514   -1.1068    6.5145 H         1 <0>         0.1486 
      44 H15        0.4122   -2.7973    8.3261 H         1 <0>         0.1348 
      45 H16        2.4826   -3.8359    9.2214 H         1 <0>         0.1332 
      46 H17        4.6821   -3.2644    8.2455 H         1 <0>         0.1296 
      47 H18        6.2985   -2.5905    7.4040 H         1 <0>         0.4054 
      48 H19        7.4590   -1.3888    5.0076 H         1 <0>         0.1035 
      49 H20        8.3538   -2.1287    6.3527 H         1 <0>         0.0890 
      50 H21        6.2572    0.4097    7.9904 H         1 <0>         0.1520 
      51 H22        7.7559    2.7515    8.2739 H         1 <0>         0.1526 
      52 H23        9.8264    2.4358    6.7239 H         1 <0>         0.2068 
@<TRIPOS>BOND
       1        1        2 1        
       2        1       30 1        
       3        1       31 1        
       4        1       32 1        
       5        2        3 1        
       6        2       33 1        
       7        2       34 1        
       8        3        4 2        
       9        3        5 am       
      10        5        6 1        
      11        5       35 1        
      12        6        7 1        
      13        6       36 1        
      14        6       37 1        
      15        7        8 2        
      16        7        9 1        
      17        9       10 1        
      18       10       11 1        
      19       10       12 1        
      20       10       38 1        
      21       11       39 1        
      22       11       40 1        
      23       11       41 1        
      24       12       13 2        
      25       12       14 am       
      26       14       15 1        
      27       14       42 1        
      28       15       20 ar       
      29       15       16 ar       
      30       16       17 ar       
      31       16       43 1        
      32       17       18 ar       
      33       17       44 1        
      34       18       19 ar       
      35       18       45 1        
      36       19       20 ar       
      37       19       46 1        
      38       20       21 1        
      39       21       22 2        
      40       21       23 am       
      41       23       24 1        
      42       23       47 1        
      43       24       25 1        
      44       24       48 1        
      45       24       49 1        
      46       25       29 1        
      47       25       26 2        
      48       26       27 1        
      49       26       50 1        
      50       27       28 2        
      51       27       51 1        
      52       28       29 1        
      53       28       52 1        

