#        1GCZ_R01_S0001_C0000_L00017_S0001_C0025_G0010_E0001.mol2
#        Tue Jun  6 10:01:19 2017
#        Descriptor:     13    14     2     8     9    11
#        Energy - RMSD - RMSD MassCentre:     -79.8046    999.9999    999.9999
#        Receptor:       1  Surface Point:     1  Conformer:     0
#        Ligand:        17  Surface Point:     1  Conformer:    25
#        BUDE Formal Charge: 0
#        ATOM Count: 52
#        Heavy ATOM Count: 29
@<TRIPOS>MOLECULE
ZINC61282001_1GCZ_R01_S0001_C0000_L00017_S0001_C0025_G0010_E0001
 52 53 0 0 0
SMALL
USER_CHARGES
@<TRIPOS>ATOM
       1 C1         0.4362   -0.3524   -4.9741 C.3       1 <0>        -0.1391 
       2 C2         0.2842    0.6298   -3.8161 C.3       1 <0>        -0.1418 
       3 C3        -0.2252   -0.1038   -2.5986 C.2       1 <0>         0.5169 
       4 O1        -1.3004    0.2144   -2.0930 O.2       1 <0>        -0.5335 
       5 N1         0.4891   -1.0947   -2.0725 N.am      1 <0>        -0.7285 
       6 C4        -0.0068   -1.8089   -0.8873 C.3       1 <0>         0.1288 
       7 C5         0.2059   -0.9546    0.3396 C.2       1 <0>         0.4630 
       8 O2         0.9614   -1.3119    1.1937 O.2       1 <0>        -0.4988 
       9 O3        -0.4577    0.2135    0.4714 O.3       1 <0>        -0.3175 
      10 C6        -0.2240    0.9884    1.6503 C.3       1 <0>         0.0731 
      11 C7         1.2657    1.2969    1.7704 C.3       1 <0>        -0.1692 
      12 C8        -0.6746    0.2081    2.8621 C.2       1 <0>         0.5202 
      13 O4        -1.1168   -0.9321    2.7307 O.2       1 <0>        -0.4963 
      14 N2        -0.5934    0.7540    4.0720 N.am      1 <0>        -0.6538 
      15 C9        -1.0154    0.0242    5.2084 C.ar      1 <0>         0.2101 
      16 C10       -1.9096   -1.0467    5.0931 C.ar      1 <0>        -0.1321 
      17 C11       -2.3383   -1.7083    6.2501 C.ar      1 <0>        -0.0675 
      18 C12       -1.8755   -1.3020    7.5082 C.ar      1 <0>        -0.1401 
      19 C13       -0.9537   -0.2539    7.6156 C.ar      1 <0>        -0.0656 
      20 C14       -0.5361    0.4210    6.4624 C.ar      1 <0>        -0.1718 
      21 C15        0.3974    1.5694    6.4797 C.2       1 <0>         0.5702 
      22 O5         0.7126    2.1211    5.4264 O.2       1 <0>        -0.5422 
      23 N3         0.8950    2.0042    7.6339 N.am      1 <0>        -0.7214 
      24 C16        1.8222    3.1447    7.6510 C.3       1 <0>         0.2043 
      25 C17        1.0533    4.4209    7.4052 C.2       1 <0>        -0.0464 
      26 C18       -0.2681    4.5245    7.2089 C.2       1 <0>        -0.1782 
      27 C19       -0.4707    5.9791    7.0257 C.2       1 <0>        -0.2183 
      28 C20        0.7528    6.4998    7.1543 C.2       1 <0>        -0.0240 
      29 O6         1.7914    5.6021    7.3904 O.3       1 <0>        -0.1712 
      30 H1        -0.5322   -0.7908   -5.2064 H         1 <0>         0.0628 
      31 H2         0.8159    0.1736   -5.8474 H         1 <0>         0.0628 
      32 H3         1.1329   -1.1392   -4.6924 H         1 <0>         0.0640 
      33 H4        -0.4231    1.4093   -4.0914 H         1 <0>         0.0966 
      34 H5         1.2497    1.0781   -3.5910 H         1 <0>         0.0966 
      35 H6         1.3722   -1.3568   -2.4869 H         1 <0>         0.4131 
      36 H7        -1.0685   -2.0151   -1.0052 H         1 <0>         0.1171 
      37 H8         0.5348   -2.7456   -0.7744 H         1 <0>         0.1171 
      38 H9        -0.7841    1.9192    1.5904 H         1 <0>         0.1185 
      39 H10        1.8257    0.3654    1.8177 H         1 <0>         0.0777 
      40 H11        1.5875    1.8706    0.9037 H         1 <0>         0.0803 
      41 H12        1.4440    1.8744    2.6750 H         1 <0>         0.0842 
      42 H13       -0.2304    1.6903    4.1799 H         1 <0>         0.4245 
      43 H14       -2.2687   -1.3545    4.1223 H         1 <0>         0.1486 
      44 H15       -3.0358   -2.5288    6.1696 H         1 <0>         0.1348 
      45 H16       -2.2229   -1.8015    8.4005 H         1 <0>         0.1332 
      46 H17       -0.5710    0.0300    8.5849 H         1 <0>         0.1296 
      47 H18        0.6355    1.5503    8.4982 H         1 <0>         0.4054 
      48 H19        2.5700    3.0151    6.8715 H         1 <0>         0.1035 
      49 H20        2.3133    3.1975    8.6203 H         1 <0>         0.0890 
      50 H21       -1.0258    3.7553    7.1849 H         1 <0>         0.1520 
      51 H22       -1.3959    6.5036    6.8380 H         1 <0>         0.1526 
      52 H23        0.9768    7.5535    7.0776 H         1 <0>         0.2068 
@<TRIPOS>BOND
       1        1        2 1        
       2        1       30 1        
       3        1       31 1        
       4        1       32 1        
       5        2        3 1        
       6        2       33 1        
       7        2       34 1        
       8        3        4 2        
       9        3        5 am       
      10        5        6 1        
      11        5       35 1        
      12        6        7 1        
      13        6       36 1        
      14        6       37 1        
      15        7        8 2        
      16        7        9 1        
      17        9       10 1        
      18       10       11 1        
      19       10       12 1        
      20       10       38 1        
      21       11       39 1        
      22       11       40 1        
      23       11       41 1        
      24       12       13 2        
      25       12       14 am       
      26       14       15 1        
      27       14       42 1        
      28       15       20 ar       
      29       15       16 ar       
      30       16       17 ar       
      31       16       43 1        
      32       17       18 ar       
      33       17       44 1        
      34       18       19 ar       
      35       18       45 1        
      36       19       20 ar       
      37       19       46 1        
      38       20       21 1        
      39       21       22 2        
      40       21       23 am       
      41       23       24 1        
      42       23       47 1        
      43       24       25 1        
      44       24       48 1        
      45       24       49 1        
      46       25       29 1        
      47       25       26 2        
      48       26       27 1        
      49       26       50 1        
      50       27       28 2        
      51       27       51 1        
      52       28       29 1        
      53       28       52 1        

