#        1GCZ_R01_S0001_C0000_L00017_S0001_C0025_G0010_E0001.mol2
#        Tue Jun  6 14:19:05 2017
#        Descriptor:     12    14     2     8     9    11
#        Energy - RMSD - RMSD MassCentre:     -79.8616    999.9999    999.9999
#        Receptor:       1  Surface Point:     1  Conformer:     0
#        Ligand:        17  Surface Point:     1  Conformer:    25
#        BUDE Formal Charge: 0
#        ATOM Count: 52
#        Heavy ATOM Count: 29
@<TRIPOS>MOLECULE
ZINC61282001_1GCZ_R01_S0001_C0000_L00017_S0001_C0025_G0010_E0001
 52 53 0 0 0
SMALL
USER_CHARGES
@<TRIPOS>ATOM
       1 C1        -0.0286    0.6364   -5.0915 C.3       1 <0>        -0.1391 
       2 C2        -0.0225    1.4736   -3.8156 C.3       1 <0>        -0.1418 
       3 C3        -0.5653    0.6504   -2.6720 C.2       1 <0>         0.5169 
       4 O1        -1.5767    1.0166   -2.0754 O.2       1 <0>        -0.5335 
       5 N1         0.0506   -0.4712   -2.3094 N.am      1 <0>        -0.7285 
       6 C4        -0.4778   -1.2726   -1.1962 C.3       1 <0>         0.1288 
       7 C5        -0.1217   -0.6100    0.1132 C.2       1 <0>         0.4630 
       8 O2         0.6202   -1.1533    0.8762 O.2       1 <0>        -0.4988 
       9 O3        -0.6417    0.5970    0.4217 O.3       1 <0>        -0.3175 
      10 C6        -0.2756    1.1851    1.6727 C.3       1 <0>         0.0731 
      11 C7         1.2432    1.3119    1.7512 C.3       1 <0>        -0.1692 
      12 C8        -0.7656    0.3102    2.8017 C.2       1 <0>         0.5202 
      13 O4        -1.3401   -0.7490    2.5552 O.2       1 <0>        -0.4963 
      14 N2        -0.5760    0.6853    4.0635 N.am      1 <0>        -0.6538 
      15 C9        -1.0347   -0.1333    5.1226 C.ar      1 <0>         0.2101 
      16 C10       -2.0494   -1.0770    4.9242 C.ar      1 <0>        -0.1321 
      17 C11       -2.5062   -1.8302    6.0123 C.ar      1 <0>        -0.0675 
      18 C12       -1.9519   -1.6405    7.2847 C.ar      1 <0>        -0.1401 
      19 C13       -0.9127   -0.7212    7.4710 C.ar      1 <0>        -0.0656 
      20 C14       -0.4652    0.0458    6.3888 C.ar      1 <0>        -0.1718 
      21 C15        0.5936    1.0743    6.4975 C.2       1 <0>         0.5702 
      22 O5         0.9291    1.7182    5.5046 O.2       1 <0>        -0.5422 
      23 N3         1.1816    1.3015    7.6686 N.am      1 <0>        -0.7214 
      24 C16        2.2333    2.3229    7.7764 C.3       1 <0>         0.2043 
      25 C17        1.6067    3.6960    7.7295 C.2       1 <0>        -0.0464 
      26 C18        0.2992    3.9669    7.6170 C.2       1 <0>        -0.1782 
      27 C19        0.2577    5.4464    7.6241 C.2       1 <0>        -0.2183 
      28 C20        1.5367    5.8102    7.7511 C.2       1 <0>        -0.0240 
      29 O6         2.4741    4.7821    7.8207 O.3       1 <0>        -0.1712 
      30 H1        -1.0490    0.3392   -5.3245 H         1 <0>         0.0628 
      31 H2         0.3749    1.2251   -5.9126 H         1 <0>         0.0628 
      32 H3         0.5838   -0.2509   -4.9452 H         1 <0>         0.0640 
      33 H4        -0.6459    2.3540   -3.9558 H         1 <0>         0.0966 
      34 H5         0.9960    1.7819   -3.5883 H         1 <0>         0.0966 
      35 H6         0.8813   -0.7728   -2.7987 H         1 <0>         0.4131 
      36 H7        -1.5599   -1.3453   -1.2826 H         1 <0>         0.1171 
      37 H8        -0.0431   -2.2693   -1.2275 H         1 <0>         0.1171 
      38 H9        -0.7274    2.1713    1.7567 H         1 <0>         0.1185 
      39 H10        1.6942    0.3266    1.6547 H         1 <0>         0.0777 
      40 H11        1.5949    1.9530    0.9456 H         1 <0>         0.0803 
      41 H12        1.5211    1.7464    2.7091 H         1 <0>         0.0842 
      42 H13       -0.1043    1.5551    4.2660 H         1 <0>         0.4245 
      43 H14       -2.4785   -1.2176    3.9431 H         1 <0>         0.1486 
      44 H15       -3.2956   -2.5531    5.8687 H         1 <0>         0.1348 
      45 H16       -2.3196   -2.2090    8.1261 H         1 <0>         0.1332 
      46 H17       -0.4631   -0.6066    8.4463 H         1 <0>         0.1296 
      47 H18        0.9054    0.7721    8.4832 H         1 <0>         0.4054 
      48 H19        2.9308    2.2133    6.9487 H         1 <0>         0.1035 
      49 H20        2.7642    2.1979    8.7178 H         1 <0>         0.0890 
      50 H21       -0.5419    3.2940    7.5388 H         1 <0>         0.1520 
      51 H22       -0.6079    6.0879    7.5510 H         1 <0>         0.1526 
      52 H23        1.8767    6.8344    7.7924 H         1 <0>         0.2068 
@<TRIPOS>BOND
       1        1        2 1        
       2        1       30 1        
       3        1       31 1        
       4        1       32 1        
       5        2        3 1        
       6        2       33 1        
       7        2       34 1        
       8        3        4 2        
       9        3        5 am       
      10        5        6 1        
      11        5       35 1        
      12        6        7 1        
      13        6       36 1        
      14        6       37 1        
      15        7        8 2        
      16        7        9 1        
      17        9       10 1        
      18       10       11 1        
      19       10       12 1        
      20       10       38 1        
      21       11       39 1        
      22       11       40 1        
      23       11       41 1        
      24       12       13 2        
      25       12       14 am       
      26       14       15 1        
      27       14       42 1        
      28       15       20 ar       
      29       15       16 ar       
      30       16       17 ar       
      31       16       43 1        
      32       17       18 ar       
      33       17       44 1        
      34       18       19 ar       
      35       18       45 1        
      36       19       20 ar       
      37       19       46 1        
      38       20       21 1        
      39       21       22 2        
      40       21       23 am       
      41       23       24 1        
      42       23       47 1        
      43       24       25 1        
      44       24       48 1        
      45       24       49 1        
      46       25       29 1        
      47       25       26 2        
      48       26       27 1        
      49       26       50 1        
      50       27       28 2        
      51       27       51 1        
      52       28       29 1        
      53       28       52 1        

