#        1GCZ_R01_S0001_C0000_L00017_S0001_C0026_G0010_E0001.mol2
#        Tue Jun  6 10:01:20 2017
#        Descriptor:     20    36    35    10    10    15
#        Energy - RMSD - RMSD MassCentre:     -66.9436    999.9999    999.9999
#        Receptor:       1  Surface Point:     1  Conformer:     0
#        Ligand:        17  Surface Point:     1  Conformer:    26
#        BUDE Formal Charge: 0
#        ATOM Count: 52
#        Heavy ATOM Count: 29
@<TRIPOS>MOLECULE
ZINC61282001_1GCZ_R01_S0001_C0000_L00017_S0001_C0026_G0010_E0001
 52 53 0 0 0
SMALL
USER_CHARGES
@<TRIPOS>ATOM
       1 C1        -0.7337    5.3504    5.7260 C.3       1 <0>        -0.1391 
       2 C2        -0.0540    4.3119    6.6135 C.3       1 <0>        -0.1418 
       3 C3        -0.8196    3.0122    6.5431 C.2       1 <0>         0.5169 
       4 O1        -1.3172    2.5347    7.5615 O.2       1 <0>        -0.5335 
       5 N1        -0.9557    2.3834    5.3790 N.am      1 <0>        -0.7285 
       6 C4        -1.7010    1.1183    5.3105 C.3       1 <0>         0.1288 
       7 C5        -0.8449    0.0006    5.8563 C.2       1 <0>         0.4630 
       8 O2        -0.4809   -0.8806    5.1360 O.2       1 <0>        -0.4988 
       9 O3        -0.4906   -0.0032    7.1590 O.3       1 <0>        -0.3175 
      10 C6         0.3209   -1.0822    7.6302 C.3       1 <0>         0.0731 
      11 C7         0.5431   -0.9343    9.1326 C.3       1 <0>        -0.1692 
      12 C8         1.6534   -1.0560    6.9203 C.2       1 <0>         0.5202 
      13 O4         2.0223   -2.0307    6.2671 O.2       1 <0>        -0.4963 
      14 N2         2.4286    0.0216    7.0015 N.am      1 <0>        -0.6538 
      15 C9         3.6775    0.0476    6.3369 C.ar      1 <0>         0.2101 
      16 C10        3.9638   -0.8405    5.2935 C.ar      1 <0>        -0.1321 
      17 C11        5.2306   -0.8118    4.6982 C.ar      1 <0>        -0.0675 
      18 C12        6.1992    0.0970    5.1429 C.ar      1 <0>        -0.1401 
      19 C13        5.8966    1.0073    6.1625 C.ar      1 <0>        -0.0656 
      20 C14        4.6367    0.9700    6.7715 C.ar      1 <0>        -0.1718 
      21 C15        4.2407    1.8588    7.8868 C.2       1 <0>         0.5702 
      22 O5         3.1183    1.7624    8.3808 O.2       1 <0>        -0.5422 
      23 N3         5.0987    2.7611    8.3543 N.am      1 <0>        -0.7214 
      24 C16        4.7056    3.6439    9.4621 C.3       1 <0>         0.2043 
      25 C17        3.7487    4.6946    8.9518 C.2       1 <0>        -0.0464 
      26 C18        3.3053    4.8183    7.6933 C.2       1 <0>        -0.1782 
      27 C19        2.4087    5.9939    7.7638 C.2       1 <0>        -0.2183 
      28 C20        2.4559    6.3664    9.0457 C.2       1 <0>        -0.0240 
      29 O6         3.2779    5.6166    9.8838 O.3       1 <0>        -0.1712 
      30 H1        -1.7488    5.5198    6.0793 H         1 <0>         0.0628 
      31 H2        -0.1746    6.2828    5.7663 H         1 <0>         0.0628 
      32 H3        -0.7620    4.9877    4.7006 H         1 <0>         0.0640 
      33 H4        -0.0378    4.6672    7.6416 H         1 <0>         0.0966 
      34 H5         0.9653    4.1507    6.2686 H         1 <0>         0.0966 
      35 H6        -0.5474    2.7746    4.5422 H         1 <0>         0.4131 
      36 H7        -2.6104    1.1998    5.9022 H         1 <0>         0.1171 
      37 H8        -1.9591    0.9042    4.2755 H         1 <0>         0.1171 
      38 H9        -0.1785   -2.0275    7.4281 H         1 <0>         0.1185 
      39 H10        1.0312    0.0168    9.3346 H         1 <0>         0.0777 
      40 H11       -0.4159   -0.9666    9.6453 H         1 <0>         0.0803 
      41 H12        1.1722   -1.7480    9.4874 H         1 <0>         0.0842 
      42 H13        2.1256    0.8219    7.5379 H         1 <0>         0.4245 
      43 H14        3.2166   -1.5436    4.9559 H         1 <0>         0.1486 
      44 H15        5.4618   -1.5009    3.8993 H         1 <0>         0.1348 
      45 H16        7.1821    0.1035    4.6952 H         1 <0>         0.1332 
      46 H17        6.6346    1.7311    6.4751 H         1 <0>         0.1296 
      47 H18        6.0201    2.8394    7.9480 H         1 <0>         0.4054 
      48 H19        5.5903    4.1264    9.8719 H         1 <0>         0.1035 
      49 H20        4.2197    3.0563   10.2381 H         1 <0>         0.0890 
      50 H21        3.5280    4.2229    6.8202 H         1 <0>         0.1520 
      51 H22        1.8393    6.4451    6.9647 H         1 <0>         0.1526 
      52 H23        1.9115    7.2037    9.4563 H         1 <0>         0.2068 
@<TRIPOS>BOND
       1        1        2 1        
       2        1       30 1        
       3        1       31 1        
       4        1       32 1        
       5        2        3 1        
       6        2       33 1        
       7        2       34 1        
       8        3        4 2        
       9        3        5 am       
      10        5        6 1        
      11        5       35 1        
      12        6        7 1        
      13        6       36 1        
      14        6       37 1        
      15        7        8 2        
      16        7        9 1        
      17        9       10 1        
      18       10       11 1        
      19       10       12 1        
      20       10       38 1        
      21       11       39 1        
      22       11       40 1        
      23       11       41 1        
      24       12       13 2        
      25       12       14 am       
      26       14       15 1        
      27       14       42 1        
      28       15       20 ar       
      29       15       16 ar       
      30       16       17 ar       
      31       16       43 1        
      32       17       18 ar       
      33       17       44 1        
      34       18       19 ar       
      35       18       45 1        
      36       19       20 ar       
      37       19       46 1        
      38       20       21 1        
      39       21       22 2        
      40       21       23 am       
      41       23       24 1        
      42       23       47 1        
      43       24       25 1        
      44       24       48 1        
      45       24       49 1        
      46       25       29 1        
      47       25       26 2        
      48       26       27 1        
      49       26       50 1        
      50       27       28 2        
      51       27       51 1        
      52       28       29 1        
      53       28       52 1        

