#        1GCZ_R01_S0001_C0000_L00017_S0001_C0026_G0010_E0001.mol2
#        Tue Jun  6 14:19:07 2017
#        Descriptor:     25    16    34     9     7    14
#        Energy - RMSD - RMSD MassCentre:     -68.4445    999.9999    999.9999
#        Receptor:       1  Surface Point:     1  Conformer:     0
#        Ligand:        17  Surface Point:     1  Conformer:    26
#        BUDE Formal Charge: 0
#        ATOM Count: 52
#        Heavy ATOM Count: 29
@<TRIPOS>MOLECULE
ZINC61282001_1GCZ_R01_S0001_C0000_L00017_S0001_C0026_G0010_E0001
 52 53 0 0 0
SMALL
USER_CHARGES
@<TRIPOS>ATOM
       1 C1         4.4135    0.7284    3.6163 C.3       1 <0>        -0.1391 
       2 C2         3.2711   -0.1981    4.0222 C.3       1 <0>        -0.1418 
       3 C3         3.8078   -1.3026    4.9010 C.2       1 <0>         0.5169 
       4 O1         3.7049   -2.4760    4.5473 O.2       1 <0>        -0.5335 
       5 N1         4.3923   -1.0061    6.0584 N.am      1 <0>        -0.7285 
       6 C4         4.9147   -2.0812    6.9139 C.3       1 <0>         0.1288 
       7 C5         3.7682   -2.7600    7.6244 C.2       1 <0>         0.4630 
       8 O2         3.6753   -2.6894    8.8136 O.2       1 <0>        -0.4988 
       9 O3         2.8476   -3.4473    6.9155 O.3       1 <0>        -0.3175 
      10 C6         1.7799   -4.0734    7.6317 C.3       1 <0>         0.0731 
      11 C7         0.9005   -4.8521    6.6577 C.3       1 <0>        -0.1692 
      12 C8         0.9511   -3.0171    8.3227 C.2       1 <0>         0.5202 
      13 O4         0.8105   -3.0462    9.5442 O.2       1 <0>        -0.4963 
      14 N2         0.3727   -2.0547    7.6099 N.am      1 <0>        -0.6538 
      15 C9        -0.4044   -1.0643    8.2558 C.ar      1 <0>         0.2101 
      16 C10       -0.2789   -0.8236    9.6291 C.ar      1 <0>        -0.1321 
      17 C11       -1.1037    0.1317   10.2350 C.ar      1 <0>        -0.0675 
      18 C12       -2.0431    0.8383    9.4733 C.ar      1 <0>        -0.1401 
      19 C13       -2.1404    0.6198    8.0940 C.ar      1 <0>        -0.0656 
      20 C14       -1.3291   -0.3467    7.4879 C.ar      1 <0>        -0.1718 
      21 C15       -1.3923   -0.6811    6.0474 C.2       1 <0>         0.5702 
      22 O5        -0.6549   -1.5505    5.5854 O.2       1 <0>        -0.5422 
      23 N3        -2.2465   -0.0416    5.2536 N.am      1 <0>        -0.7214 
      24 C16       -2.3095   -0.3738    3.8230 C.3       1 <0>         0.2043 
      25 C17       -1.1000    0.1962    3.1212 C.2       1 <0>        -0.0464 
      26 C18       -0.1070    0.8913    3.6924 C.2       1 <0>        -0.1782 
      27 C19        0.7935    1.1915    2.5568 C.2       1 <0>        -0.2183 
      28 C20        0.1990    0.6195    1.5062 C.2       1 <0>        -0.0240 
      29 O6        -1.0078   -0.0320    1.7502 O.3       1 <0>        -0.1712 
      30 H1         5.1570    0.1634    3.0577 H         1 <0>         0.0628 
      31 H2         4.0247    1.5316    2.9940 H         1 <0>         0.0628 
      32 H3         4.8725    1.1496    4.5084 H         1 <0>         0.0640 
      33 H4         2.8205   -0.6310    3.1316 H         1 <0>         0.0966 
      34 H5         2.5211    0.3685    4.5702 H         1 <0>         0.0966 
      35 H6         4.4773   -0.0428    6.3499 H         1 <0>         0.4131 
      36 H7         5.4428   -2.8088    6.3013 H         1 <0>         0.1171 
      37 H8         5.5981   -1.6609    7.6489 H         1 <0>         0.1171 
      38 H9         2.1908   -4.7543    8.3743 H         1 <0>         0.1185 
      39 H10        0.5003   -4.1723    5.9083 H         1 <0>         0.0777 
      40 H11        1.4945   -5.6219    6.1696 H         1 <0>         0.0803 
      41 H12        0.0807   -5.3163    7.2018 H         1 <0>         0.0842 
      42 H13        0.4881   -2.0309    6.6069 H         1 <0>         0.4245 
      43 H14        0.4429   -1.3735   10.2149 H         1 <0>         0.1486 
      44 H15       -1.0192    0.3155   11.2959 H         1 <0>         0.1348 
      45 H16       -2.6917    1.5606    9.9469 H         1 <0>         0.1332 
      46 H17       -2.8398    1.1948    7.5054 H         1 <0>         0.1296 
      47 H18       -2.8516    0.6721    5.6341 H         1 <0>         0.4054 
      48 H19       -3.2135    0.0512    3.3921 H         1 <0>         0.1035 
      49 H20       -2.3233   -1.4549    3.7028 H         1 <0>         0.0890 
      50 H21        0.0316    1.1780    4.7244 H         1 <0>         0.1520 
      51 H22        1.7232    1.7410    2.5721 H         1 <0>         0.1526 
      52 H23        0.5892    0.6421    0.4995 H         1 <0>         0.2068 
@<TRIPOS>BOND
       1        1        2 1        
       2        1       30 1        
       3        1       31 1        
       4        1       32 1        
       5        2        3 1        
       6        2       33 1        
       7        2       34 1        
       8        3        4 2        
       9        3        5 am       
      10        5        6 1        
      11        5       35 1        
      12        6        7 1        
      13        6       36 1        
      14        6       37 1        
      15        7        8 2        
      16        7        9 1        
      17        9       10 1        
      18       10       11 1        
      19       10       12 1        
      20       10       38 1        
      21       11       39 1        
      22       11       40 1        
      23       11       41 1        
      24       12       13 2        
      25       12       14 am       
      26       14       15 1        
      27       14       42 1        
      28       15       20 ar       
      29       15       16 ar       
      30       16       17 ar       
      31       16       43 1        
      32       17       18 ar       
      33       17       44 1        
      34       18       19 ar       
      35       18       45 1        
      36       19       20 ar       
      37       19       46 1        
      38       20       21 1        
      39       21       22 2        
      40       21       23 am       
      41       23       24 1        
      42       23       47 1        
      43       24       25 1        
      44       24       48 1        
      45       24       49 1        
      46       25       29 1        
      47       25       26 2        
      48       26       27 1        
      49       26       50 1        
      50       27       28 2        
      51       27       51 1        
      52       28       29 1        
      53       28       52 1        

