#        1GCZ_R01_S0001_C0000_L00017_S0001_C0027_G0010_E0001.mol2
#        Tue Jun  6 10:01:21 2017
#        Descriptor:     14    25    34    12    10    14
#        Energy - RMSD - RMSD MassCentre:     -67.3481    999.9999    999.9999
#        Receptor:       1  Surface Point:     1  Conformer:     0
#        Ligand:        17  Surface Point:     1  Conformer:    27
#        BUDE Formal Charge: 0
#        ATOM Count: 52
#        Heavy ATOM Count: 29
@<TRIPOS>MOLECULE
ZINC61282001_1GCZ_R01_S0001_C0000_L00017_S0001_C0027_G0010_E0001
 52 53 0 0 0
SMALL
USER_CHARGES
@<TRIPOS>ATOM
       1 C1        10.9153    2.8869    7.0028 C.3       1 <0>        -0.1391 
       2 C2        10.2762    1.5048    7.1031 C.3       1 <0>        -0.1418 
       3 C3         9.1304    1.4089    6.1243 C.2       1 <0>         0.5169 
       4 O1         9.1538    0.5653    5.2294 O.2       1 <0>        -0.5335 
       5 N1         8.0952    2.2372    6.2297 N.am      1 <0>        -0.7285 
       6 C4         6.9797    2.1438    5.2769 C.3       1 <0>         0.1288 
       7 C5         6.1144    0.9581    5.6310 C.2       1 <0>         0.4630 
       8 O2         6.0327    0.0318    4.8806 O.2       1 <0>        -0.4988 
       9 O3         5.4330    0.9444    6.7963 O.3       1 <0>        -0.3175 
      10 C6         4.6267   -0.2000    7.0883 C.3       1 <0>         0.0731 
      11 C7         5.4929   -1.4559    7.0546 C.3       1 <0>        -0.1692 
      12 C8         3.5300   -0.3182    6.0570 C.2       1 <0>         0.5202 
      13 O4         3.4088   -1.3527    5.4029 O.2       1 <0>        -0.4963 
      14 N2         2.6947    0.6969    5.8558 N.am      1 <0>        -0.6538 
      15 C9         1.6666    0.5877    4.8898 C.ar      1 <0>         0.2101 
      16 C10        1.7500   -0.3363    3.8415 C.ar      1 <0>        -0.1321 
      17 C11        0.7328   -0.3749    2.8803 C.ar      1 <0>        -0.0675 
      18 C12       -0.3560    0.5018    2.9691 C.ar      1 <0>        -0.1401 
      19 C13       -0.4529    1.3996    4.0388 C.ar      1 <0>        -0.0656 
      20 C14        0.5707    1.4527    4.9923 C.ar      1 <0>        -0.1718 
      21 C15        0.5802    2.3989    6.1303 C.2       1 <0>         0.5702 
      22 O5         1.5196    2.3958    6.9243 O.2       1 <0>        -0.5422 
      23 N3        -0.4271    3.2519    6.2938 N.am      1 <0>        -0.7214 
      24 C16       -0.4177    4.1916    7.4242 C.3       1 <0>         0.2043 
      25 C17        0.5809    5.2918    7.1546 C.2       1 <0>        -0.0464 
      26 C18        1.3438    5.4187    6.0603 C.2       1 <0>        -0.1782 
      27 C19        2.1150    6.6537    6.3261 C.2       1 <0>        -0.2183 
      28 C20        1.6787    7.0627    7.5206 C.2       1 <0>        -0.0240 
      29 O6         0.7121    6.2710    8.1365 O.3       1 <0>        -0.1712 
      30 H1        10.1763    3.6463    7.2499 H         1 <0>         0.0628 
      31 H2        11.7493    2.9514    7.6984 H         1 <0>         0.0628 
      32 H3        11.2750    3.0467    5.9885 H         1 <0>         0.0640 
      33 H4         9.9035    1.3493    8.1132 H         1 <0>         0.0966 
      34 H5        11.0177    0.7439    6.8682 H         1 <0>         0.0966 
      35 H6         8.0749    2.9304    6.9641 H         1 <0>         0.4131 
      36 H7         6.3845    3.0534    5.3242 H         1 <0>         0.1171 
      37 H8         7.3717    2.0182    4.2698 H         1 <0>         0.1171 
      38 H9         4.1843   -0.0901    8.0762 H         1 <0>         0.1185 
      39 H10        5.9446   -1.5578    6.0701 H         1 <0>         0.0777 
      40 H11        6.2749   -1.3764    7.8066 H         1 <0>         0.0803 
      41 H12        4.8756   -2.3271    7.2630 H         1 <0>         0.0842 
      42 H13        2.7943    1.5464    6.3928 H         1 <0>         0.4245 
      43 H14        2.5931   -1.0076    3.7727 H         1 <0>         0.1486 
      44 H15        0.7954   -1.0784    2.0633 H         1 <0>         0.1348 
      45 H16       -1.1294    0.4832    2.2155 H         1 <0>         0.1332 
      46 H17       -1.3136    2.0467    4.1230 H         1 <0>         0.1296 
      47 H18       -1.1980    3.2535    5.6412 H         1 <0>         0.4054 
      48 H19       -0.1387    3.6623    8.3328 H         1 <0>         0.1035 
      49 H20       -1.4092    4.6227    7.5449 H         1 <0>         0.0890 
      50 H21        1.4042    4.7916    5.1832 H         1 <0>         0.1520 
      51 H22        2.8564    7.1235    5.6968 H         1 <0>         0.1526 
      52 H23        2.0332    7.9480    8.0274 H         1 <0>         0.2068 
@<TRIPOS>BOND
       1        1        2 1        
       2        1       30 1        
       3        1       31 1        
       4        1       32 1        
       5        2        3 1        
       6        2       33 1        
       7        2       34 1        
       8        3        4 2        
       9        3        5 am       
      10        5        6 1        
      11        5       35 1        
      12        6        7 1        
      13        6       36 1        
      14        6       37 1        
      15        7        8 2        
      16        7        9 1        
      17        9       10 1        
      18       10       11 1        
      19       10       12 1        
      20       10       38 1        
      21       11       39 1        
      22       11       40 1        
      23       11       41 1        
      24       12       13 2        
      25       12       14 am       
      26       14       15 1        
      27       14       42 1        
      28       15       20 ar       
      29       15       16 ar       
      30       16       17 ar       
      31       16       43 1        
      32       17       18 ar       
      33       17       44 1        
      34       18       19 ar       
      35       18       45 1        
      36       19       20 ar       
      37       19       46 1        
      38       20       21 1        
      39       21       22 2        
      40       21       23 am       
      41       23       24 1        
      42       23       47 1        
      43       24       25 1        
      44       24       48 1        
      45       24       49 1        
      46       25       29 1        
      47       25       26 2        
      48       26       27 1        
      49       26       50 1        
      50       27       28 2        
      51       27       51 1        
      52       28       29 1        
      53       28       52 1        

