#        1GCZ_R01_S0001_C0000_L00017_S0001_C0027_G0010_E0001.mol2
#        Tue Jun  6 14:19:09 2017
#        Descriptor:     10     2    13     8     6    15
#        Energy - RMSD - RMSD MassCentre:     -63.5613    999.9999    999.9999
#        Receptor:       1  Surface Point:     1  Conformer:     0
#        Ligand:        17  Surface Point:     1  Conformer:    27
#        BUDE Formal Charge: 0
#        ATOM Count: 52
#        Heavy ATOM Count: 29
@<TRIPOS>MOLECULE
ZINC61282001_1GCZ_R01_S0001_C0000_L00017_S0001_C0027_G0010_E0001
 52 53 0 0 0
SMALL
USER_CHARGES
@<TRIPOS>ATOM
       1 C1        -2.2550   -8.6029    7.9646 C.3       1 <0>        -0.1391 
       2 C2        -1.0697   -8.0529    8.7526 C.3       1 <0>        -0.1418 
       3 C3        -1.2805   -6.5809    9.0153 C.2       1 <0>         0.5169 
       4 O1        -1.3466   -6.1648   10.1709 O.2       1 <0>        -0.5335 
       5 N1        -1.3950   -5.7337    7.9965 N.am      1 <0>        -0.7285 
       6 C4        -1.6002   -4.3008    8.2522 C.3       1 <0>         0.1288 
       7 C5        -0.2934   -3.6736    8.6749 C.2       1 <0>         0.4630 
       8 O2        -0.1718   -3.2300    9.7778 O.2       1 <0>        -0.4988 
       9 O3         0.7385   -3.6143    7.8065 O.3       1 <0>        -0.3175 
      10 C6         1.9562   -3.0113    8.2520 C.3       1 <0>         0.0731 
      11 C7         2.4553   -3.7328    9.5006 C.3       1 <0>        -0.1692 
      12 C8         1.7075   -1.5578    8.5770 C.2       1 <0>         0.5202 
      13 O4         1.9783   -1.1218    9.6948 O.2       1 <0>        -0.4963 
      14 N2         1.1952   -0.7486    7.6542 N.am      1 <0>        -0.6538 
      15 C9         0.9615    0.6135    7.9574 C.ar      1 <0>         0.2101 
      16 C10        0.8233    1.0501    9.2803 C.ar      1 <0>        -0.1321 
      17 C11        0.5432    2.3988    9.5305 C.ar      1 <0>        -0.0675 
      18 C12        0.4041    3.3000    8.4672 C.ar      1 <0>        -0.1401 
      19 C13        0.5787    2.8661    7.1478 C.ar      1 <0>        -0.0656 
      20 C14        0.8419    1.5149    6.8930 C.ar      1 <0>        -0.1718 
      21 C15        0.9950    0.9540    5.5319 C.2       1 <0>         0.5702 
      22 O5         1.2153   -0.2470    5.3834 O.2       1 <0>        -0.5422 
      23 N3         0.8942    1.7488    4.4703 N.am      1 <0>        -0.7214 
      24 C16        1.0464    1.1916    3.1185 C.3       1 <0>         0.2043 
      25 C17       -0.1930    0.4092    2.7553 C.2       1 <0>        -0.0464 
      26 C18       -1.2781    0.2421    3.5235 C.2       1 <0>        -0.1782 
      27 C19       -2.1645   -0.5921    2.6815 C.2       1 <0>        -0.2183 
      28 C20       -1.4714   -0.7729    1.5539 C.2       1 <0>        -0.0240 
      29 O6        -0.2088   -0.1873    1.4966 O.3       1 <0>        -0.1712 
      30 H1        -2.3295   -8.0822    7.0122 H         1 <0>         0.0628 
      31 H2        -2.1094   -9.6663    7.7869 H         1 <0>         0.0628 
      32 H3        -3.1697   -8.4515    8.5338 H         1 <0>         0.0640 
      33 H4        -0.1561   -8.1909    8.1784 H         1 <0>         0.0966 
      34 H5        -0.9866   -8.5815    9.7001 H         1 <0>         0.0966 
      35 H6        -1.3409   -6.0743    7.0471 H         1 <0>         0.4131 
      36 H7        -1.9571   -3.8174    7.3451 H         1 <0>         0.1171 
      37 H8        -2.3353   -4.1747    9.0442 H         1 <0>         0.1171 
      38 H9         2.7058   -3.0835    7.4666 H         1 <0>         0.1185 
      39 H10        1.6997   -3.6705   10.2810 H         1 <0>         0.0777 
      40 H11        2.6471   -4.7769    9.2630 H         1 <0>         0.0803 
      41 H12        3.3741   -3.2641    9.8466 H         1 <0>         0.0842 
      42 H13        0.9728   -1.1067    6.7365 H         1 <0>         0.4245 
      43 H14        0.9260    0.3520   10.0978 H         1 <0>         0.1486 
      44 H15        0.4254    2.7406   10.5481 H         1 <0>         0.1348 
      45 H16        0.1688    4.3358    8.6623 H         1 <0>         0.1332 
      46 H17        0.5082    3.5730    6.3342 H         1 <0>         0.1296 
      47 H18        0.7134    2.7349    4.5935 H         1 <0>         0.4054 
      48 H19        1.9121    0.5332    3.0936 H         1 <0>         0.1035 
      49 H20        1.1859    2.0022    2.4064 H         1 <0>         0.0890 
      50 H21       -1.4856    0.6123    4.5166 H         1 <0>         0.1520 
      51 H22       -3.1498   -0.9649    2.9187 H         1 <0>         0.1526 
      52 H23       -1.8246   -1.3431    0.7074 H         1 <0>         0.2068 
@<TRIPOS>BOND
       1        1        2 1        
       2        1       30 1        
       3        1       31 1        
       4        1       32 1        
       5        2        3 1        
       6        2       33 1        
       7        2       34 1        
       8        3        4 2        
       9        3        5 am       
      10        5        6 1        
      11        5       35 1        
      12        6        7 1        
      13        6       36 1        
      14        6       37 1        
      15        7        8 2        
      16        7        9 1        
      17        9       10 1        
      18       10       11 1        
      19       10       12 1        
      20       10       38 1        
      21       11       39 1        
      22       11       40 1        
      23       11       41 1        
      24       12       13 2        
      25       12       14 am       
      26       14       15 1        
      27       14       42 1        
      28       15       20 ar       
      29       15       16 ar       
      30       16       17 ar       
      31       16       43 1        
      32       17       18 ar       
      33       17       44 1        
      34       18       19 ar       
      35       18       45 1        
      36       19       20 ar       
      37       19       46 1        
      38       20       21 1        
      39       21       22 2        
      40       21       23 am       
      41       23       24 1        
      42       23       47 1        
      43       24       25 1        
      44       24       48 1        
      45       24       49 1        
      46       25       29 1        
      47       25       26 2        
      48       26       27 1        
      49       26       50 1        
      50       27       28 2        
      51       27       51 1        
      52       28       29 1        
      53       28       52 1        

