#        1GCZ_R01_S0001_C0000_L00017_S0001_C0028_G0010_E0001.mol2
#        Tue Jun  6 10:01:22 2017
#        Descriptor:      8     1    22    11     9    12
#        Energy - RMSD - RMSD MassCentre:     -83.6633    999.9999    999.9999
#        Receptor:       1  Surface Point:     1  Conformer:     0
#        Ligand:        17  Surface Point:     1  Conformer:    28
#        BUDE Formal Charge: 0
#        ATOM Count: 52
#        Heavy ATOM Count: 29
@<TRIPOS>MOLECULE
ZINC61282001_1GCZ_R01_S0001_C0000_L00017_S0001_C0028_G0010_E0001
 52 53 0 0 0
SMALL
USER_CHARGES
@<TRIPOS>ATOM
       1 C1         9.9192    1.8547    8.0851 C.3       1 <0>        -0.1391 
       2 C2         9.1884    1.4346    6.8130 C.3       1 <0>        -0.1418 
       3 C3         7.7480    1.1220    7.1411 C.2       1 <0>         0.5169 
       4 O1         7.3004   -0.0053    6.9360 O.2       1 <0>        -0.5335 
       5 N1         6.9627    2.0659    7.6520 N.am      1 <0>        -0.7285 
       6 C4         5.5606    1.7616    7.9714 C.3       1 <0>         0.1288 
       7 C5         4.7513    1.7261    6.6970 C.2       1 <0>         0.4630 
       8 O2         3.8954    2.5385    6.5091 O.2       1 <0>        -0.4988 
       9 O3         4.9951    0.7761    5.7694 O.3       1 <0>        -0.3175 
      10 C6         4.2033    0.7825    4.5787 C.3       1 <0>         0.0731 
      11 C7         4.3344    2.1363    3.8867 C.3       1 <0>        -0.1692 
      12 C8         2.7565    0.5389    4.9360 C.2       1 <0>         0.5202 
      13 O4         2.4256    0.4150    6.1141 O.2       1 <0>        -0.4963 
      14 N2         1.8394    0.4582    3.9761 N.am      1 <0>        -0.6538 
      15 C9         0.4834    0.2298    4.3093 C.ar      1 <0>         0.2101 
      16 C10        0.1232   -0.3485    5.5322 C.ar      1 <0>        -0.1321 
      17 C11       -1.2278   -0.6016    5.7984 C.ar      1 <0>        -0.0675 
      18 C12       -2.2068   -0.2780    4.8503 C.ar      1 <0>        -0.1401 
      19 C13       -1.8452    0.3330    3.6438 C.ar      1 <0>        -0.0656 
      20 C14       -0.4939    0.5719    3.3671 C.ar      1 <0>        -0.1718 
      21 C15       -0.0111    1.1689    2.1017 C.2       1 <0>         0.5702 
      22 O5         1.1937    1.3402    1.9234 O.2       1 <0>        -0.5422 
      23 N3        -0.8805    1.5197    1.1583 N.am      1 <0>        -0.7214 
      24 C16       -0.4010    2.1127   -0.0984 C.3       1 <0>         0.2043 
      25 C17        0.2231    1.0374   -0.9553 C.2       1 <0>        -0.0464 
      26 C18        1.5346    0.8269   -1.1322 C.2       1 <0>        -0.1782 
      27 C19        1.5710   -0.3342   -2.0494 C.2       1 <0>        -0.2183 
      28 C20        0.2847   -0.6295   -2.2564 C.2       1 <0>        -0.0240 
      29 O6        -0.6521    0.1790   -1.6169 O.3       1 <0>        -0.1712 
      30 H1         9.8908    1.0394    8.8050 H         1 <0>         0.0628 
      31 H2        10.9536    2.0928    7.8464 H         1 <0>         0.0628 
      32 H3         9.4332    2.7309    8.5092 H         1 <0>         0.0640 
      33 H4         9.6648    0.5501    6.3956 H         1 <0>         0.0966 
      34 H5         9.2269    2.2447    6.0876 H         1 <0>         0.0966 
      35 H6         7.3293    2.9919    7.8208 H         1 <0>         0.4131 
      36 H7         5.5022    0.7935    8.4644 H         1 <0>         0.1171 
      37 H8         5.1632    2.5298    8.6313 H         1 <0>         0.1171 
      38 H9         4.5479   -0.0028    3.9089 H         1 <0>         0.1185 
      39 H10        4.0012    2.9217    4.5618 H         1 <0>         0.0777 
      40 H11        5.3747    2.3058    3.6174 H         1 <0>         0.0803 
      41 H12        3.7205    2.1447    2.9885 H         1 <0>         0.0842 
      42 H13        2.1111    0.5598    3.0088 H         1 <0>         0.4245 
      43 H14        0.8806   -0.6016    6.2592 H         1 <0>         0.1486 
      44 H15       -1.5121   -1.0567    6.7356 H         1 <0>         0.1348 
      45 H16       -3.2463   -0.4922    5.0502 H         1 <0>         0.1332 
      46 H17       -2.6078    0.6152    2.9329 H         1 <0>         0.1296 
      47 H18       -1.8697    1.3786    1.3059 H         1 <0>         0.4054 
      48 H19        0.3405    2.8777    0.1219 H         1 <0>         0.1035 
      49 H20       -1.2380    2.5605   -0.6299 H         1 <0>         0.0890 
      50 H21        2.3812    1.3562   -0.7208 H         1 <0>         0.1520 
      51 H22        2.4377   -0.8350   -2.4546 H         1 <0>         0.1526 
      52 H23       -0.0606   -1.4363   -2.8857 H         1 <0>         0.2068 
@<TRIPOS>BOND
       1        1        2 1        
       2        1       30 1        
       3        1       31 1        
       4        1       32 1        
       5        2        3 1        
       6        2       33 1        
       7        2       34 1        
       8        3        4 2        
       9        3        5 am       
      10        5        6 1        
      11        5       35 1        
      12        6        7 1        
      13        6       36 1        
      14        6       37 1        
      15        7        8 2        
      16        7        9 1        
      17        9       10 1        
      18       10       11 1        
      19       10       12 1        
      20       10       38 1        
      21       11       39 1        
      22       11       40 1        
      23       11       41 1        
      24       12       13 2        
      25       12       14 am       
      26       14       15 1        
      27       14       42 1        
      28       15       20 ar       
      29       15       16 ar       
      30       16       17 ar       
      31       16       43 1        
      32       17       18 ar       
      33       17       44 1        
      34       18       19 ar       
      35       18       45 1        
      36       19       20 ar       
      37       19       46 1        
      38       20       21 1        
      39       21       22 2        
      40       21       23 am       
      41       23       24 1        
      42       23       47 1        
      43       24       25 1        
      44       24       48 1        
      45       24       49 1        
      46       25       29 1        
      47       25       26 2        
      48       26       27 1        
      49       26       50 1        
      50       27       28 2        
      51       27       51 1        
      52       28       29 1        
      53       28       52 1        

