#        1GCZ_R01_S0001_C0000_L00017_S0001_C0028_G0010_E0001.mol2
#        Tue Jun  6 14:19:11 2017
#        Descriptor:     13    14     2     8     9    11
#        Energy - RMSD - RMSD MassCentre:     -80.9135    999.9999    999.9999
#        Receptor:       1  Surface Point:     1  Conformer:     0
#        Ligand:        17  Surface Point:     1  Conformer:    28
#        BUDE Formal Charge: 0
#        ATOM Count: 52
#        Heavy ATOM Count: 29
@<TRIPOS>MOLECULE
ZINC61282001_1GCZ_R01_S0001_C0000_L00017_S0001_C0028_G0010_E0001
 52 53 0 0 0
SMALL
USER_CHARGES
@<TRIPOS>ATOM
       1 C1         0.4114   -0.3635   -4.9540 C.3       1 <0>        -0.1391 
       2 C2         0.2594    0.6187   -3.7960 C.3       1 <0>        -0.1418 
       3 C3        -0.2500   -0.1149   -2.5785 C.2       1 <0>         0.5169 
       4 O1        -1.3252    0.2033   -2.0729 O.2       1 <0>        -0.5335 
       5 N1         0.4643   -1.1058   -2.0524 N.am      1 <0>        -0.7285 
       6 C4        -0.0316   -1.8200   -0.8672 C.3       1 <0>         0.1288 
       7 C5         0.1811   -0.9657    0.3597 C.2       1 <0>         0.4630 
       8 O2         0.9366   -1.3230    1.2138 O.2       1 <0>        -0.4988 
       9 O3        -0.4825    0.2024    0.4915 O.3       1 <0>        -0.3175 
      10 C6        -0.2488    0.9773    1.6704 C.3       1 <0>         0.0731 
      11 C7         1.2409    1.2858    1.7905 C.3       1 <0>        -0.1692 
      12 C8        -0.6994    0.1969    2.8822 C.2       1 <0>         0.5202 
      13 O4        -1.1416   -0.9432    2.7508 O.2       1 <0>        -0.4963 
      14 N2        -0.6182    0.7429    4.0922 N.am      1 <0>        -0.6538 
      15 C9        -1.0402    0.0131    5.2285 C.ar      1 <0>         0.2101 
      16 C10       -1.9344   -1.0578    5.1133 C.ar      1 <0>        -0.1321 
      17 C11       -2.3631   -1.7194    6.2702 C.ar      1 <0>        -0.0675 
      18 C12       -1.9003   -1.3131    7.5283 C.ar      1 <0>        -0.1401 
      19 C13       -0.9785   -0.2650    7.6357 C.ar      1 <0>        -0.0656 
      20 C14       -0.5609    0.4099    6.4825 C.ar      1 <0>        -0.1718 
      21 C15        0.3726    1.5583    6.4998 C.2       1 <0>         0.5702 
      22 O5         0.6878    2.1099    5.4466 O.2       1 <0>        -0.5422 
      23 N3         0.8702    1.9930    7.6540 N.am      1 <0>        -0.7214 
      24 C16        1.7974    3.1336    7.6711 C.3       1 <0>         0.2043 
      25 C17        1.0285    4.4098    7.4253 C.2       1 <0>        -0.0464 
      26 C18        0.9845    5.0996    6.2774 C.2       1 <0>        -0.1782 
      27 C19        0.0965    6.2389    6.6003 C.2       1 <0>        -0.2183 
      28 C20       -0.2493    6.0348    7.8744 C.2       1 <0>        -0.0240 
      29 O6         0.2891    4.9097    8.4947 O.3       1 <0>        -0.1712 
      30 H1        -0.5570   -0.8019   -5.1863 H         1 <0>         0.0628 
      31 H2         0.7910    0.1625   -5.8273 H         1 <0>         0.0628 
      32 H3         1.1081   -1.1503   -4.6723 H         1 <0>         0.0640 
      33 H4        -0.4479    1.3982   -4.0712 H         1 <0>         0.0966 
      34 H5         1.2249    1.0670   -3.5709 H         1 <0>         0.0966 
      35 H6         1.3474   -1.3679   -2.4668 H         1 <0>         0.4131 
      36 H7        -1.0933   -2.0262   -0.9851 H         1 <0>         0.1171 
      37 H8         0.5100   -2.7567   -0.7543 H         1 <0>         0.1171 
      38 H9        -0.8089    1.9081    1.6105 H         1 <0>         0.1185 
      39 H10        1.8009    0.3543    1.8379 H         1 <0>         0.0777 
      40 H11        1.5627    1.8595    0.9239 H         1 <0>         0.0803 
      41 H12        1.4192    1.8633    2.6951 H         1 <0>         0.0842 
      42 H13       -0.2552    1.6792    4.2000 H         1 <0>         0.4245 
      43 H14       -2.2935   -1.3656    4.1424 H         1 <0>         0.1486 
      44 H15       -3.0606   -2.5399    6.1897 H         1 <0>         0.1348 
      45 H16       -2.2477   -1.8126    8.4206 H         1 <0>         0.1332 
      46 H17       -0.5958    0.0189    8.6050 H         1 <0>         0.1296 
      47 H18        0.6107    1.5392    8.5183 H         1 <0>         0.4054 
      48 H19        2.5452    3.0040    6.8916 H         1 <0>         0.1035 
      49 H20        2.2885    3.1864    8.6405 H         1 <0>         0.0890 
      50 H21        1.4664    4.8997    5.3319 H         1 <0>         0.1520 
      51 H22       -0.2096    7.0478    5.9538 H         1 <0>         0.1526 
      52 H23       -0.9007    6.6847    8.4396 H         1 <0>         0.2068 
@<TRIPOS>BOND
       1        1        2 1        
       2        1       30 1        
       3        1       31 1        
       4        1       32 1        
       5        2        3 1        
       6        2       33 1        
       7        2       34 1        
       8        3        4 2        
       9        3        5 am       
      10        5        6 1        
      11        5       35 1        
      12        6        7 1        
      13        6       36 1        
      14        6       37 1        
      15        7        8 2        
      16        7        9 1        
      17        9       10 1        
      18       10       11 1        
      19       10       12 1        
      20       10       38 1        
      21       11       39 1        
      22       11       40 1        
      23       11       41 1        
      24       12       13 2        
      25       12       14 am       
      26       14       15 1        
      27       14       42 1        
      28       15       20 ar       
      29       15       16 ar       
      30       16       17 ar       
      31       16       43 1        
      32       17       18 ar       
      33       17       44 1        
      34       18       19 ar       
      35       18       45 1        
      36       19       20 ar       
      37       19       46 1        
      38       20       21 1        
      39       21       22 2        
      40       21       23 am       
      41       23       24 1        
      42       23       47 1        
      43       24       25 1        
      44       24       48 1        
      45       24       49 1        
      46       25       29 1        
      47       25       26 2        
      48       26       27 1        
      49       26       50 1        
      50       27       28 2        
      51       27       51 1        
      52       28       29 1        
      53       28       52 1        

