#        1GCZ_R01_S0001_C0000_L00003_S0001_C0037_G0010_E0001.mol2
#        Tue Jun  6 14:04:42 2017
#        Descriptor:     21    13    18    12     6    11
#        Energy - RMSD - RMSD MassCentre:     -65.7196    999.9999    999.9999
#        Receptor:       1  Surface Point:     1  Conformer:     0
#        Ligand:         3  Surface Point:     1  Conformer:    37
#        BUDE Formal Charge: 0
#        ATOM Count: 58
#        Heavy ATOM Count: 30
@<TRIPOS>MOLECULE
ZINC61580633_1GCZ_R01_S0001_C0000_L00003_S0001_C0037_G0010_E0001
 58 59 0 0 0
SMALL
USER_CHARGES
@<TRIPOS>ATOM
       1 C1         0.8705   -0.6739   -1.8348 C.3       1 <0>        -0.1532 
       2 C2        -0.3285   -0.9053   -0.9199 C.3       1 <0>        -0.1224 
       3 C3        -0.0851   -0.2155    0.4217 C.3       1 <0>        -0.1198 
       4 C4        -1.2858   -0.4474    1.3379 C.3       1 <0>         0.0610 
       5 O1        -1.0579    0.1982    2.5933 O.3       1 <0>        -0.3878 
       6 C5         0.0993   -0.3168    3.2571 C.3       1 <0>         0.0487 
       7 C6         0.2882    0.4106    4.5875 C.3       1 <0>         0.1244 
       8 N1         1.4778   -0.1188    5.2698 N.am      1 <0>        -0.7216 
       9 C7         2.6915    0.1688    4.8085 C.2       1 <0>         0.5161 
      10 O2         2.8194    0.8775    3.8115 O.2       1 <0>        -0.5151 
      11 C8         3.9135   -0.3750    5.5094 C.3       1 <0>         0.0490 
      12 O3         3.9888   -1.7885    5.3064 O.3       1 <0>        -0.3194 
      13 C9         2.9933   -2.5534    5.8027 C.2       1 <0>         0.5417 
      14 O4         2.0663   -2.0353    6.4033 O.2       1 <0>        -0.5337 
      15 C10        3.0266   -4.0214    5.6183 C.2       1 <0>        -0.2559 
      16 C11        1.9969   -4.9523    6.1318 C.2       1 <0>        -0.0791 
      17 C12        2.2718   -6.2258    5.8405 C.2       1 <0>        -0.2585 
      18 S1         3.7766   -6.4075    4.9268 S.3       1 <0>         0.3028 
      19 C13        4.0137   -4.6541    4.9697 C.2       1 <0>         0.0893 
      20 N2         5.0759   -3.9825    4.4240 N.am      1 <0>        -0.6099 
      21 C14        6.0327   -4.6534    3.7890 C.2       1 <0>         0.5551 
      22 O5         5.9640   -5.8776    3.6915 O.2       1 <0>        -0.4939 
      23 C15        7.1794   -3.9264    3.2000 C.ar      1 <0>        -0.1466 
      24 C16        8.1654   -4.6724    2.5432 C.ar      1 <0>        -0.0772 
      25 C17        9.3096   -4.0499    2.0304 C.ar      1 <0>        -0.1241 
      26 C18        9.4941   -2.6698    2.1741 C.ar      1 <0>        -0.0446 
      27 C19        8.4854   -1.9139    2.7832 C.ar      1 <0>        -0.1261 
      28 C20        7.3291   -2.5362    3.2687 C.ar      1 <0>        -0.0460 
      29 C21       10.7638   -2.0268    1.6692 C.3       1 <0>        -0.0928 
      30 C22       11.8074   -2.0210    2.7824 C.3       1 <0>        -0.1485 
      31 H1         1.7621   -1.0978   -1.3774 H         1 <0>         0.0567 
      32 H2         1.0116    0.3946   -1.9835 H         1 <0>         0.0554 
      33 H3         0.6914   -1.1537   -2.7947 H         1 <0>         0.0557 
      34 H4        -1.2231   -0.4929   -1.3820 H         1 <0>         0.0632 
      35 H5        -0.4622   -1.9731   -0.7590 H         1 <0>         0.0635 
      36 H6         0.8087   -0.6277    0.8851 H         1 <0>         0.0711 
      37 H7         0.0478    0.8525    0.2622 H         1 <0>         0.0704 
      38 H8        -2.1803   -0.0349    0.8758 H         1 <0>         0.0498 
      39 H9        -1.4192   -1.5151    1.4987 H         1 <0>         0.0505 
      40 H10        0.9761   -0.1615    2.6319 H         1 <0>         0.0584 
      41 H11       -0.0313   -1.3811    3.4418 H         1 <0>         0.0702 
      42 H12       -0.5877    0.2553    5.2140 H         1 <0>         0.0872 
      43 H13        0.4197    1.4748    4.4041 H         1 <0>         0.0805 
      44 H14        1.3739   -0.7009    6.0886 H         1 <0>         0.4058 
      45 H15        4.8056    0.0971    5.1032 H         1 <0>         0.1008 
      46 H16        3.8446   -0.1655    6.5747 H         1 <0>         0.0999 
      47 H17        1.1226   -4.6156    6.6689 H         1 <0>         0.1557 
      48 H18        1.6279   -7.0439    6.1272 H         1 <0>         0.1929 
      49 H19        5.1323   -2.9773    4.5040 H         1 <0>         0.4317 
      50 H20        8.0464   -5.7402    2.4336 H         1 <0>         0.1287 
      51 H21       10.0606   -4.6347    1.5201 H         1 <0>         0.1326 
      52 H22        8.6101   -0.8446    2.8694 H         1 <0>         0.1342 
      53 H23        6.5602   -1.8957    3.6748 H         1 <0>         0.1410 
      54 H24       10.5543   -1.0043    1.3622 H         1 <0>         0.0777 
      55 H25       11.1420   -2.5909    0.8193 H         1 <0>         0.0771 
      56 H26       12.0252   -3.0447    3.0798 H         1 <0>         0.0623 
      57 H27       11.4223   -1.4686    3.6369 H         1 <0>         0.0572 
      58 H28       12.7176   -1.5457    2.4227 H         1 <0>         0.0578 
@<TRIPOS>BOND
       1        1        2 1        
       2        1       31 1        
       3        1       32 1        
       4        1       33 1        
       5        2        3 1        
       6        2       34 1        
       7        2       35 1        
       8        3        4 1        
       9        3       36 1        
      10        3       37 1        
      11        4        5 1        
      12        4       38 1        
      13        4       39 1        
      14        5        6 1        
      15        6        7 1        
      16        6       40 1        
      17        6       41 1        
      18        7        8 1        
      19        7       42 1        
      20        7       43 1        
      21        8        9 am       
      22        8       44 1        
      23        9       10 2        
      24        9       11 1        
      25       11       12 1        
      26       11       45 1        
      27       11       46 1        
      28       12       13 1        
      29       13       14 2        
      30       13       15 1        
      31       15       19 2        
      32       15       16 1        
      33       16       17 2        
      34       16       47 1        
      35       17       18 1        
      36       17       48 1        
      37       18       19 1        
      38       19       20 1        
      39       20       21 am       
      40       20       49 1        
      41       21       22 2        
      42       21       23 1        
      43       23       28 ar       
      44       23       24 ar       
      45       24       25 ar       
      46       24       50 1        
      47       25       26 ar       
      48       25       51 1        
      49       26       27 ar       
      50       26       29 1        
      51       27       28 ar       
      52       27       52 1        
      53       28       53 1        
      54       29       30 1        
      55       29       54 1        
      56       29       55 1        
      57       30       56 1        
      58       30       57 1        
      59       30       58 1        

