#        1GCZ_R01_S0001_C0000_L00002_S0001_C0001_G0010_E0001.mol2
#        Tue Jun  6 14:03:14 2017
#        Descriptor:     30    13    20    15    10    15
#        Energy - RMSD - RMSD MassCentre:     -47.0944    999.9999    999.9999
#        Receptor:       1  Surface Point:     1  Conformer:     0
#        Ligand:         2  Surface Point:     1  Conformer:     1
#        BUDE Formal Charge: 0
#        ATOM Count: 22
#        Heavy ATOM Count: 16
@<TRIPOS>MOLECULE
ZINC02227500_0_1GCZ_R01_S0001_C0000_L00002_S0001_C0001_G0010_E0001
 22 24 1 0 0
SMALL
USER_CHARGES
INVALID_CHARGES
@<TRIPOS>ATOM
       1 C1         5.7575    2.1999    6.2404 C.3       1 <1>         0.3194 
       2 N1         7.0005    1.9997    6.9992 N.pl3     1 <1>        -0.4769 
       3 C2         7.0092    1.8417    8.2970 C.2       1 <1>         0.3171 
       4 C3         8.2471    1.6297    9.0798 C.2       1 <1>         0.3210 
       5 N2         7.9649    1.5034   10.3631 N.2       1 <1>        -0.2760 
       6 O1         6.5713    1.6352   10.3747 O.3       1 <1>         0.0506 
       7 N3         5.9685    1.8447    9.1088 N.2       1 <1>        -0.2740 
       8 N4         9.4834    1.5817    8.4917 N.pl3     1 <1>        -0.4794 
       9 C4         9.4809    1.7462    7.1317 C.2       1 <1>         0.3182 
      10 C5         8.2225    1.9559    6.3815 C.2       1 <1>         0.3113 
      11 N5         8.4863    2.0853    5.0946 N.2       1 <1>        -0.2636 
      12 O2         9.8989    1.9538    5.0694 O.3       1 <1>         0.0468 
      13 N6        10.5139    1.7466    6.3099 N.2       1 <1>        -0.2717 
      14 C6        10.7205    1.3833    9.2605 C.3       1 <1>         0.3187 
      15 O3        11.7266    2.2802    8.7830 O.3       1 <1>        -0.5831 
      16 O4         4.7445    1.3250    6.7439 O.3       1 <1>        -0.5790 
      17 H1         5.9355    1.9809    5.1898 H         1 <1>         0.0922 
      18 H2         5.4305    3.2323    6.3447 H         1 <1>         0.0977 
      19 H3        11.0615    0.3572    9.1391 H         1 <1>         0.0998 
      20 H4        10.5281    1.5802   10.3131 H         1 <1>         0.0941 
      21 H5        11.4343    3.2022    8.8589 H         1 <1>         0.4091 
      22 H6         5.0193    0.3975    6.6713 H         1 <1>         0.4075 
@<TRIPOS>BOND
       1        1        2 1        
       2        1       16 1        
       3        1       17 1        
       4        1       18 1        
       5        2       10 1        
       6        2        3 1        
       7        3        7 2        
       8        3        4 1        
       9        4        5 2        
      10        4        8 1        
      11        5        6 1        
      12        6        7 1        
      13        8        9 1        
      14        8       14 1        
      15        9       13 2        
      16        9       10 1        
      17       10       11 2        
      18       11       12 1        
      19       12       13 1        
      20       14       15 1        
      21       14       19 1        
      22       14       20 1        
      23       15       21 1        
      24       16       22 1        
@<TRIPOS>SUBSTRUCTURE
 1 **** 1 TEMP 0 **** **** 0 ROOT

